LAMMPS (24 Dec 2020)
units metal
boundary m m m
atom_style full
read_data data.SiO2
Reading data file ...
  orthogonal box = (19.406984 62.530346 16.102798) to (75.327880 104.04620 62.111134)
  reading atoms ...
  990 atoms
  reading velocities ...
  990 velocities
Finding 1-2 1-3 1-4 neighbors ...
     0 = max # of 1-2 neighbors
     0 = max # of 1-3 neighbors
     0 = max # of 1-4 neighbors
     1 = max # of special neighbors
group 2 type 1
325 atoms in group 2
group 3 type 2
665 atoms in group 3
group 4 type 1 2
990 atoms in group 4
dump 1 4 atom 100 dump.si
compute 1 3 pe/atom
compute 2 3 ke/atom
compute 3 2 pe/atom
compute 4 2 ke/atom
compute ape_O 3 reduce ave c_1
compute ake_O 3 reduce ave c_2
compute ape_Si 2 reduce ave c_3
compute ake_Si 2 reduce ave c_4
thermo 100
thermo_style custom step temp press vol density etotal c_ape_O c_ake_O c_ape_Si c_ake_Si
pair_style vashishta
pair_coeff * * SiO.Vashishta Si O
Reading vashishta potential file SiO.Vashishta with DATE: 2015-10-14
set type 2 charge -2.0
Setting atom values ...
  665 settings made for charge
fix 1 4 nve
fix 2 2 wall/morse ylo EDGE 200 0.04 1.5 20.0 xlo EDGE 30 0.2 0.4 1.5 zlo EDGE 30 0.2 0.4 1.5 zhi EDGE 30 0.2 0.4 1.5 xhi EDGE 30 0.2 0.4 1.5
velocity 4 zero linear
velocity 4 zero angular
velocity 2 create 850 46545434
velocity 2 scale 850
timestep 0.0001
run 250000
  update every 1 steps, delay 10 steps, check yes
Step Temp Press Volume Density TotEng c_ape_O c_ake_O c_ape_Si c_ake_Si
0    849.98733    44.669634    106813.14   0.30730787    -1173.825  -0.80682758   0.10986869   -2.2952172   0.10953306
Averages over the last 1251 of 2501 rows, steps 125000 to 250000:
Temp Press Volume Density TotEng c_ape_O c_ake_O c_ape_Si c_ake_Si
4194.39 0.159696 6.00258e+09 7.96526e-06 23.1638 -0.510173 0.62399 -0.534693 0.373078
Loop time of 282.4 on 4 procs for 250000 steps with 990 atoms

delete_atoms group 3
Deleted 665 atoms, new total = 325
write_data data.Si
System init for write_data ...
