LAMMPS (24 Dec 2020)
variable dt equal 0.0001
variable t index 900 1000 1500
label loop1
variable p index 1 2 5
label loop2
units metal
boundary p p p
atom_style atomic
lattice custom 6.711 a1 0.3671583967 0 0 a2 0.1835791983 0.3179684987 0 a3 0 0 1 basis 0.1 0.1 0.05 basis 0.433 0.433 0.55
Lattice spacing in x,y,z = 3.6960000 2.1338866 6.7110000
region 1 block 10.0 30.0 10.0 60.0 10.0 30.0 units lattice
region 2 cylinder y 20.0 20.0 2.5 27.0 43.0 units lattice
region 3 cylinder y 20.0 20.0 3.2 24.0 43.0 units lattice
region 4 cylinder y 20.0 20.0 2.5 20.0 27.0 units lattice
region 5 cylinder y 20.0 20.0 3.8 44.0 48.0 units lattice
region 6 cylinder y 20.0 20.0 2.5 20.0 43.0 units lattice
region 7 cylinder y 20.0 20.0 4.45 44.0 48.0 units lattice
region 8 cylinder y 20.0 20.2 3.2 20.0 23.0 units lattice
region 9 cylinder y 20.0 20.0 3.2 43.0 44.0 units lattice
region 10 cylinder y 20.0 20.0 3.8 43.0 44.0 units lattice
region 11 cylinder y 20.0 20.0 3.8 48.0 49.0 units lattice
region 12 cylinder y 20.0 20.2 3.8 19.0 20.0 units lattice
create_box 2 1
Created orthogonal box = (36.960000 21.338866 67.110000) to (110.88000 128.03320 201.33000)
create_atoms 1 region 3
Created 1016 atoms
lattice custom 6.711 a1 0.3671583967 0 0 a2 0.1835791983 0.3179684987 0 a3 0 0 1 basis 0.2667 0.2667 0.25 basis 0.6 0.6 0.75
Lattice spacing in x,y,z = 3.6960000 2.1338866 6.7110000
create_atoms 1 region 8
Created 161 atoms
delete_atoms region 6
Deleted 709 atoms, new total = 468
lattice custom 6.711 a1 0.3671583967 0 0 a2 0.1835791983 0.3179684987 0 a3 0 0 1 basis 0.1 0.1 0.05 basis 0.433 0.433 0.55
Lattice spacing in x,y,z = 3.6960000 2.1338866 6.7110000
create_atoms 1 region 7
Created 406 atoms
#create_atoms 1 region 10
delete_atoms region 5
Deleted 300 atoms, new total = 574
#delete_atoms region 9
mass 1 12.0107
lattice custom 5.4309 a1 1 0 0 a2 0 1 0 a3 0 0 1 basis 0.15 0.15 0.15 basis 0.65 0.65 0.15 basis 0.65 0.15 0.65 basis 0.15 0.65 0.65
Lattice spacing in x,y,z = 5.4309000 5.4309000 5.4309000
create_atoms 2 region 4
Created 95 atoms
create_atoms 2 region 9
Created 30 atoms
create_atoms 2 random 94 5628 5
Created 94 atoms
create_atoms 2 region 11
Created 42 atoms
lattice custom 5.4309 a1 1 0 0 a2 0 1 0 a3 0 0 1 basis 0.65 0.35 0.35 basis 0.65 0.85 0.85 basis 0.15 0.85 0.35 basis 0.15 0.85 0.0.85
Lattice spacing in x,y,z = 5.4309000 5.4309000 5.4309000
create_atoms 2 region 2
Created 264 atoms
create_atoms 2 region 12
Created 64 atoms
mass 2 28.0855
group 1 type 1
574 atoms in group 1
group 2 type 2
589 atoms in group 2
group 3 type 1
574 atoms in group 3
group 3 type 2
1163 atoms in group 3
pair_style kim Tersoff_LAMMPS_ErhartAlbe_2005SiII_SiC__MO_408791041969_003
pair_coeff * * C Si
neighbor 2.5 bin
neigh_modify every 1 delay 100
dump 1 all atom 100 dump.SiC_900_1_dt:0.0001
compute 1 1 pe/atom
compute 2 1 ke/atom
compute 3 2 pe/atom
compute 4 2 ke/atom
compute ape_C 1 reduce ave c_1
compute ake_C 1 reduce ave c_2
compute ape_Si 2 reduce ave c_3
compute ake_Si 2 reduce ave c_4
velocity 3 zero linear
velocity 3 zero angular
fix 1 3 nvt temp 0.001 10.0 0.001 fixedpoint 20.0 35.0 20.0
thermo_style custom step temp press c_ape_C c_ake_C c_ape_Si c_ake_Si
thermo 100
timestep 0.0001
run 1000
  update every 1 steps, delay 100 steps, check yes
Step Temp Press c_ape_C c_ake_C c_ape_Si c_ake_Si
0            0    2916.2291  0.081050387            0   0.61957706            0
Averages over the last 6 of 11 rows, steps 500 to 1000:
Temp Press c_ape_C c_ake_C c_ape_Si c_ake_Si
1.09663e-15 1245.35 -0.329367 6.59084e-20 -0.691373 2.15421e-19
Loop time of 0.663656 on 4 procs for 1000 steps with 1163 atoms

reset_timestep 0
unfix 1
velocity 3 zero linear
velocity 3 zero angular
fix 1 3 nvt temp 10.0 300 0.001 fixedpoint 20.0 35.0 20.0
thermo_style custom step temp press c_ape_C c_ake_C c_ape_Si c_ake_Si
thermo 100
timestep 0.0001
run 1000
Step Temp Press c_ape_C c_ake_C c_ape_Si c_ake_Si
0 3.6714079e-15    973.07956  -0.36196846 2.1678981e-19  -0.84504783 7.2497313e-19
Averages over the last 6 of 11 rows, steps 500 to 1000:
Temp Press c_ape_C c_ake_C c_ape_Si c_ake_Si
230.565 -360.903 -0.89367 0.0381278 -2.13959 0.0216393
Loop time of 0.672263 on 4 procs for 1000 steps with 1163 atoms

reset_timestep 0
unfix 1
velocity 3 zero linear
velocity 3 zero angular
fix 1 3 npt temp 300 $t 0.001 iso $p $p 0.01 fixedpoint 20.0 35.0 20.0
fix 1 3 npt temp 300 900 0.001 iso $p $p 0.01 fixedpoint 20.0 35.0 20.0
fix 1 3 npt temp 300 900 0.001 iso 1 $p 0.01 fixedpoint 20.0 35.0 20.0
fix 1 3 npt temp 300 900 0.001 iso 1 1 0.01 fixedpoint 20.0 35.0 20.0
thermo_style custom step temp press c_ape_C c_ake_C c_ape_Si c_ake_Si
thermo 100
timestep 0.0001
run 5000
Step Temp Press c_ape_C c_ake_C c_ape_Si c_ake_Si
0     304.3535   -333.94133   -1.0929785  0.058132477   -2.2405563  0.020960852
Averages over the last 26 of 51 rows, steps 2500 to 5000:
Temp Press c_ape_C c_ake_C c_ape_Si c_ake_Si
758.912 5.80831 -3.2727 0.104846 -3.22886 0.0913537
Loop time of 5.29332 on 4 procs for 5000 steps with 1163 atoms

reset_timestep 0
unfix 1
velocity 3 zero linear
velocity 3 zero angular
velocity 3 create $t 12025
velocity 3 create 900 12025
velocity 3 scale $t
velocity 3 scale 900
fix 1 3 npt temp $t $t 0.001 iso $p $p 0.01 fixedpoint 20.0 35.0 20.0
fix 1 3 npt temp 900 $t 0.001 iso $p $p 0.01 fixedpoint 20.0 35.0 20.0
fix 1 3 npt temp 900 900 0.001 iso $p $p 0.01 fixedpoint 20.0 35.0 20.0
fix 1 3 npt temp 900 900 0.001 iso 1 $p 0.01 fixedpoint 20.0 35.0 20.0
fix 1 3 npt temp 900 900 0.001 iso 1 1 0.01 fixedpoint 20.0 35.0 20.0
thermo_style custom step temp press c_ape_C c_ake_C c_ape_Si c_ake_Si
thermo 100
timestep 0.0001
run 50000
Step Temp Press c_ape_C c_ake_C c_ape_Si c_ake_Si
0          900   -32.637584   -3.5480061   0.11987502   -3.4840852    0.1126859
Averages over the last 251 of 501 rows, steps 25000 to 50000:
Temp Press c_ape_C c_ake_C c_ape_Si c_ake_Si
900.512 -0.76646 -5.32242 0.122244 -4.34004 0.110508
Loop time of 88.2588 on 4 procs for 50000 steps with 1163 atoms

reset_timestep 0
unfix 1
velocity 3 zero linear
velocity 3 zero angular
fix 1 3 nvt temp $t 300 0.001 fixedpoint 20.0 35.0 20.0
fix 1 3 nvt temp 900 300 0.001 fixedpoint 20.0 35.0 20.0
thermo_style custom step temp press c_ape_C c_ake_C c_ape_Si c_ake_Si
thermo 100
timestep 0.0001
run 5000
Step Temp Press c_ape_C c_ake_C c_ape_Si c_ake_Si
0     915.8326    165.67675   -5.3887754   0.10793359   -4.3834441   0.12836067
Averages over the last 26 of 51 rows, steps 2500 to 5000:
Temp Press c_ape_C c_ake_C c_ape_Si c_ake_Si
449.654 -11.8308 -5.44563 0.0554705 -4.45227 0.0606079
Loop time of 9.10777 on 4 procs for 5000 steps with 1163 atoms

write_data SiC.data1_900_1_dt:0.0001
System init for write_data ...
clear
next p
jump SELF loop2
units metal
boundary p p p
atom_style atomic
lattice custom 6.711 a1 0.3671583967 0 0 a2 0.1835791983 0.3179684987 0 a3 0 0 1 basis 0.1 0.1 0.05 basis 0.433 0.433 0.55
Lattice spacing in x,y,z = 3.6960000 2.1338866 6.7110000
region 1 block 10.0 30.0 10.0 60.0 10.0 30.0 units lattice
region 2 cylinder y 20.0 20.0 2.5 27.0 43.0 units lattice
region 3 cylinder y 20.0 20.0 3.2 24.0 43.0 units lattice
region 4 cylinder y 20.0 20.0 2.5 20.0 27.0 units lattice
region 5 cylinder y 20.0 20.0 3.8 44.0 48.0 units lattice
region 6 cylinder y 20.0 20.0 2.5 20.0 43.0 units lattice
region 7 cylinder y 20.0 20.0 4.45 44.0 48.0 units lattice
region 8 cylinder y 20.0 20.2 3.2 20.0 23.0 units lattice
region 9 cylinder y 20.0 20.0 3.2 43.0 44.0 units lattice
region 10 cylinder y 20.0 20.0 3.8 43.0 44.0 units lattice
region 11 cylinder y 20.0 20.0 3.8 48.0 49.0 units lattice
region 12 cylinder y 20.0 20.2 3.8 19.0 20.0 units lattice
create_box 2 1
Created orthogonal box = (36.960000 21.338866 67.110000) to (110.88000 128.03320 201.33000)
create_atoms 1 region 3
Created 1016 atoms
lattice custom 6.711 a1 0.3671583967 0 0 a2 0.1835791983 0.3179684987 0 a3 0 0 1 basis 0.2667 0.2667 0.25 basis 0.6 0.6 0.75
Lattice spacing in x,y,z = 3.6960000 2.1338866 6.7110000
create_atoms 1 region 8
Created 161 atoms
delete_atoms region 6
Deleted 709 atoms, new total = 468
lattice custom 6.711 a1 0.3671583967 0 0 a2 0.1835791983 0.3179684987 0 a3 0 0 1 basis 0.1 0.1 0.05 basis 0.433 0.433 0.55
Lattice spacing in x,y,z = 3.6960000 2.1338866 6.7110000
create_atoms 1 region 7
Created 406 atoms
#create_atoms 1 region 10
delete_atoms region 5
Deleted 300 atoms, new total = 574
#delete_atoms region 9
mass 1 12.0107
lattice custom 5.4309 a1 1 0 0 a2 0 1 0 a3 0 0 1 basis 0.15 0.15 0.15 basis 0.65 0.65 0.15 basis 0.65 0.15 0.65 basis 0.15 0.65 0.65
Lattice spacing in x,y,z = 5.4309000 5.4309000 5.4309000
create_atoms 2 region 4
Created 95 atoms
create_atoms 2 region 9
Created 30 atoms
create_atoms 2 random 94 5628 5
Created 94 atoms
create_atoms 2 region 11
Created 42 atoms
lattice custom 5.4309 a1 1 0 0 a2 0 1 0 a3 0 0 1 basis 0.65 0.35 0.35 basis 0.65 0.85 0.85 basis 0.15 0.85 0.35 basis 0.15 0.85 0.0.85
Lattice spacing in x,y,z = 5.4309000 5.4309000 5.4309000
create_atoms 2 region 2
Created 264 atoms
create_atoms 2 region 12
Created 64 atoms
mass 2 28.0855
group 1 type 1
574 atoms in group 1
group 2 type 2
589 atoms in group 2
group 3 type 1
574 atoms in group 3
group 3 type 2
1163 atoms in group 3
pair_style kim Tersoff_LAMMPS_ErhartAlbe_2005SiII_SiC__MO_408791041969_003
pair_coeff * * C Si
neighbor 2.5 bin
neigh_modify every 1 delay 100
dump 1 all atom 100 dump.SiC_900_2_dt:0.0001
compute 1 1 pe/atom
compute 2 1 ke/atom
compute 3 2 pe/atom
compute 4 2 ke/atom
compute ape_C 1 reduce ave c_1
compute ake_C 1 reduce ave c_2
compute ape_Si 2 reduce ave c_3
compute ake_Si 2 reduce ave c_4
velocity 3 zero linear
velocity 3 zero angular
fix 1 3 nvt temp 0.001 10.0 0.001 fixedpoint 20.0 35.0 20.0
thermo_style custom step temp press c_ape_C c_ake_C c_ape_Si c_ake_Si
thermo 100
timestep 0.0001
run 1000
  update every 1 steps, delay 100 steps, check yes
Step Temp Press c_ape_C c_ake_C c_ape_Si c_ake_Si
0            0    2916.2291  0.081050387            0   0.61957706            0
Averages over the last 6 of 11 rows, steps 500 to 1000:
Temp Press c_ape_C c_ake_C c_ape_Si c_ake_Si
1.09663e-15 1245.35 -0.329367 6.59084e-20 -0.691373 2.15421e-19
Loop time of 0.663844 on 4 procs for 1000 steps with 1163 atoms

reset_timestep 0
unfix 1
velocity 3 zero linear
velocity 3 zero angular
fix 1 3 nvt temp 10.0 300 0.001 fixedpoint 20.0 35.0 20.0
thermo_style custom step temp press c_ape_C c_ake_C c_ape_Si c_ake_Si
thermo 100
timestep 0.0001
run 1000
Step Temp Press c_ape_C c_ake_C c_ape_Si c_ake_Si
0 3.6714079e-15    973.07956  -0.36196846 2.1678981e-19  -0.84504783 7.2497313e-19
Averages over the last 6 of 11 rows, steps 500 to 1000:
Temp Press c_ape_C c_ake_C c_ape_Si c_ake_Si
230.565 -360.903 -0.89367 0.0381278 -2.13959 0.0216393
Loop time of 0.670577 on 4 procs for 1000 steps with 1163 atoms

reset_timestep 0
unfix 1
velocity 3 zero linear
velocity 3 zero angular
fix 1 3 npt temp 300 $t 0.001 iso $p $p 0.01 fixedpoint 20.0 35.0 20.0
fix 1 3 npt temp 300 900 0.001 iso $p $p 0.01 fixedpoint 20.0 35.0 20.0
fix 1 3 npt temp 300 900 0.001 iso 2 $p 0.01 fixedpoint 20.0 35.0 20.0
fix 1 3 npt temp 300 900 0.001 iso 2 2 0.01 fixedpoint 20.0 35.0 20.0
thermo_style custom step temp press c_ape_C c_ake_C c_ape_Si c_ake_Si
thermo 100
timestep 0.0001
run 5000
Step Temp Press c_ape_C c_ake_C c_ape_Si c_ake_Si
0     304.3535   -333.94133   -1.0929785  0.058132477   -2.2405563  0.020960852
Averages over the last 26 of 51 rows, steps 2500 to 5000:
Temp Press c_ape_C c_ake_C c_ape_Si c_ake_Si
750.8 -21.034 -3.31404 0.104463 -3.23943 0.0896584
Loop time of 5.3336 on 4 procs for 5000 steps with 1163 atoms

reset_timestep 0
unfix 1
velocity 3 zero linear
velocity 3 zero angular
velocity 3 create $t 12025
velocity 3 create 900 12025
velocity 3 scale $t
velocity 3 scale 900
fix 1 3 npt temp $t $t 0.001 iso $p $p 0.01 fixedpoint 20.0 35.0 20.0
fix 1 3 npt temp 900 $t 0.001 iso $p $p 0.01 fixedpoint 20.0 35.0 20.0
fix 1 3 npt temp 900 900 0.001 iso $p $p 0.01 fixedpoint 20.0 35.0 20.0
fix 1 3 npt temp 900 900 0.001 iso 2 $p 0.01 fixedpoint 20.0 35.0 20.0
fix 1 3 npt temp 900 900 0.001 iso 2 2 0.01 fixedpoint 20.0 35.0 20.0
thermo_style custom step temp press c_ape_C c_ake_C c_ape_Si c_ake_Si
thermo 100
timestep 0.0001
run 50000
Step Temp Press c_ape_C c_ake_C c_ape_Si c_ake_Si
0          900    -91.23769   -3.5627217   0.11987502   -3.4977999    0.1126859
Averages over the last 251 of 501 rows, steps 25000 to 50000:
Temp Press c_ape_C c_ake_C c_ape_Si c_ake_Si
898.774 0.890563 -5.2415 0.123343 -4.3047 0.108994
Loop time of 89.1469 on 4 procs for 50000 steps with 1163 atoms

reset_timestep 0
unfix 1
velocity 3 zero linear
velocity 3 zero angular
fix 1 3 nvt temp $t 300 0.001 fixedpoint 20.0 35.0 20.0
fix 1 3 nvt temp 900 300 0.001 fixedpoint 20.0 35.0 20.0
thermo_style custom step temp press c_ape_C c_ake_C c_ape_Si c_ake_Si
thermo 100
timestep 0.0001
run 5000
Step Temp Press c_ape_C c_ake_C c_ape_Si c_ake_Si
0    927.74351   -36.480492   -5.3312003   0.12571907   -4.3357518   0.11406553
Averages over the last 26 of 51 rows, steps 2500 to 5000:
Temp Press c_ape_C c_ake_C c_ape_Si c_ake_Si
450.606 -12.1452 -5.40693 0.0577906 -4.41467 0.0585899
Loop time of 9.63697 on 4 procs for 5000 steps with 1163 atoms

write_data SiC.data1_900_2_dt:0.0001
System init for write_data ...
clear
next p
jump SELF loop2
units metal
boundary p p p
atom_style atomic
lattice custom 6.711 a1 0.3671583967 0 0 a2 0.1835791983 0.3179684987 0 a3 0 0 1 basis 0.1 0.1 0.05 basis 0.433 0.433 0.55
Lattice spacing in x,y,z = 3.6960000 2.1338866 6.7110000
region 1 block 10.0 30.0 10.0 60.0 10.0 30.0 units lattice
region 2 cylinder y 20.0 20.0 2.5 27.0 43.0 units lattice
region 3 cylinder y 20.0 20.0 3.2 24.0 43.0 units lattice
region 4 cylinder y 20.0 20.0 2.5 20.0 27.0 units lattice
region 5 cylinder y 20.0 20.0 3.8 44.0 48.0 units lattice
region 6 cylinder y 20.0 20.0 2.5 20.0 43.0 units lattice
region 7 cylinder y 20.0 20.0 4.45 44.0 48.0 units lattice
region 8 cylinder y 20.0 20.2 3.2 20.0 23.0 units lattice
region 9 cylinder y 20.0 20.0 3.2 43.0 44.0 units lattice
region 10 cylinder y 20.0 20.0 3.8 43.0 44.0 units lattice
region 11 cylinder y 20.0 20.0 3.8 48.0 49.0 units lattice
region 12 cylinder y 20.0 20.2 3.8 19.0 20.0 units lattice
create_box 2 1
Created orthogonal box = (36.960000 21.338866 67.110000) to (110.88000 128.03320 201.33000)
create_atoms 1 region 3
Created 1016 atoms
lattice custom 6.711 a1 0.3671583967 0 0 a2 0.1835791983 0.3179684987 0 a3 0 0 1 basis 0.2667 0.2667 0.25 basis 0.6 0.6 0.75
Lattice spacing in x,y,z = 3.6960000 2.1338866 6.7110000
create_atoms 1 region 8
Created 161 atoms
delete_atoms region 6
Deleted 709 atoms, new total = 468
lattice custom 6.711 a1 0.3671583967 0 0 a2 0.1835791983 0.3179684987 0 a3 0 0 1 basis 0.1 0.1 0.05 basis 0.433 0.433 0.55
Lattice spacing in x,y,z = 3.6960000 2.1338866 6.7110000
create_atoms 1 region 7
Created 406 atoms
#create_atoms 1 region 10
delete_atoms region 5
Deleted 300 atoms, new total = 574
#delete_atoms region 9
mass 1 12.0107
lattice custom 5.4309 a1 1 0 0 a2 0 1 0 a3 0 0 1 basis 0.15 0.15 0.15 basis 0.65 0.65 0.15 basis 0.65 0.15 0.65 basis 0.15 0.65 0.65
Lattice spacing in x,y,z = 5.4309000 5.4309000 5.4309000
create_atoms 2 region 4
Created 95 atoms
create_atoms 2 region 9
Created 30 atoms
create_atoms 2 random 94 5628 5
Created 94 atoms
create_atoms 2 region 11
Created 42 atoms
lattice custom 5.4309 a1 1 0 0 a2 0 1 0 a3 0 0 1 basis 0.65 0.35 0.35 basis 0.65 0.85 0.85 basis 0.15 0.85 0.35 basis 0.15 0.85 0.0.85
Lattice spacing in x,y,z = 5.4309000 5.4309000 5.4309000
create_atoms 2 region 2
Created 264 atoms
create_atoms 2 region 12
Created 64 atoms
mass 2 28.0855
group 1 type 1
574 atoms in group 1
group 2 type 2
589 atoms in group 2
group 3 type 1
574 atoms in group 3
group 3 type 2
1163 atoms in group 3
pair_style kim Tersoff_LAMMPS_ErhartAlbe_2005SiII_SiC__MO_408791041969_003
pair_coeff * * C Si
neighbor 2.5 bin
neigh_modify every 1 delay 100
dump 1 all atom 100 dump.SiC_900_5_dt:0.0001
compute 1 1 pe/atom
compute 2 1 ke/atom
compute 3 2 pe/atom
compute 4 2 ke/atom
compute ape_C 1 reduce ave c_1
compute ake_C 1 reduce ave c_2
compute ape_Si 2 reduce ave c_3
compute ake_Si 2 reduce ave c_4
velocity 3 zero linear
velocity 3 zero angular
fix 1 3 nvt temp 0.001 10.0 0.001 fixedpoint 20.0 35.0 20.0
thermo_style custom step temp press c_ape_C c_ake_C c_ape_Si c_ake_Si
thermo 100
timestep 0.0001
run 1000
  update every 1 steps, delay 100 steps, check yes
Step Temp Press c_ape_C c_ake_C c_ape_Si c_ake_Si
0            0    2916.2291  0.081050387            0   0.61957706            0
Averages over the last 6 of 11 rows, steps 500 to 1000:
Temp Press c_ape_C c_ake_C c_ape_Si c_ake_Si
1.09663e-15 1245.35 -0.329367 6.59084e-20 -0.691373 2.15421e-19
Loop time of 0.665145 on 4 procs for 1000 steps with 1163 atoms

reset_timestep 0
unfix 1
velocity 3 zero linear
velocity 3 zero angular
fix 1 3 nvt temp 10.0 300 0.001 fixedpoint 20.0 35.0 20.0
thermo_style custom step temp press c_ape_C c_ake_C c_ape_Si c_ake_Si
thermo 100
timestep 0.0001
run 1000
Step Temp Press c_ape_C c_ake_C c_ape_Si c_ake_Si
0 3.6714079e-15    973.07956  -0.36196846 2.1678981e-19  -0.84504783 7.2497313e-19
Averages over the last 6 of 11 rows, steps 500 to 1000:
Temp Press c_ape_C c_ake_C c_ape_Si c_ake_Si
230.565 -360.903 -0.89367 0.0381278 -2.13959 0.0216393
Loop time of 0.672099 on 4 procs for 1000 steps with 1163 atoms

reset_timestep 0
unfix 1
velocity 3 zero linear
velocity 3 zero angular
fix 1 3 npt temp 300 $t 0.001 iso $p $p 0.01 fixedpoint 20.0 35.0 20.0
fix 1 3 npt temp 300 900 0.001 iso $p $p 0.01 fixedpoint 20.0 35.0 20.0
fix 1 3 npt temp 300 900 0.001 iso 5 $p 0.01 fixedpoint 20.0 35.0 20.0
fix 1 3 npt temp 300 900 0.001 iso 5 5 0.01 fixedpoint 20.0 35.0 20.0
thermo_style custom step temp press c_ape_C c_ake_C c_ape_Si c_ake_Si
thermo 100
timestep 0.0001
run 5000
Step Temp Press c_ape_C c_ake_C c_ape_Si c_ake_Si
0     304.3535   -333.94133   -1.0929785  0.058132477   -2.2405563  0.020960852
Averages over the last 26 of 51 rows, steps 2500 to 5000:
Temp Press c_ape_C c_ake_C c_ape_Si c_ake_Si
758.717 8.1887 -3.298 0.105715 -3.26291 0.0904569
Loop time of 5.43208 on 4 procs for 5000 steps with 1163 atoms

reset_timestep 0
unfix 1
velocity 3 zero linear
velocity 3 zero angular
velocity 3 create $t 12025
velocity 3 create 900 12025
velocity 3 scale $t
velocity 3 scale 900
fix 1 3 npt temp $t $t 0.001 iso $p $p 0.01 fixedpoint 20.0 35.0 20.0
fix 1 3 npt temp 900 $t 0.001 iso $p $p 0.01 fixedpoint 20.0 35.0 20.0
fix 1 3 npt temp 900 900 0.001 iso $p $p 0.01 fixedpoint 20.0 35.0 20.0
fix 1 3 npt temp 900 900 0.001 iso 5 $p 0.01 fixedpoint 20.0 35.0 20.0
fix 1 3 npt temp 900 900 0.001 iso 5 5 0.01 fixedpoint 20.0 35.0 20.0
thermo_style custom step temp press c_ape_C c_ake_C c_ape_Si c_ake_Si
thermo 100
timestep 0.0001
run 50000
Step Temp Press c_ape_C c_ake_C c_ape_Si c_ake_Si
0          900   -195.16738    -3.578673   0.11987502   -3.5361127    0.1126859
Averages over the last 251 of 501 rows, steps 25000 to 50000:
Temp Press c_ape_C c_ake_C c_ape_Si c_ake_Si
901.121 4.70847 -5.29291 0.123305 -4.32175 0.109629
Loop time of 89.8634 on 4 procs for 50000 steps with 1163 atoms

reset_timestep 0
unfix 1
velocity 3 zero linear
velocity 3 zero angular
fix 1 3 nvt temp $t 300 0.001 fixedpoint 20.0 35.0 20.0
fix 1 3 nvt temp 900 300 0.001 fixedpoint 20.0 35.0 20.0
thermo_style custom step temp press c_ape_C c_ake_C c_ape_Si c_ake_Si
thermo 100
timestep 0.0001
run 5000
Step Temp Press c_ape_C c_ake_C c_ape_Si c_ake_Si
0     902.5089    94.644233   -5.3857139   0.11559984   -4.3560937     0.117492
Averages over the last 26 of 51 rows, steps 2500 to 5000:
Temp Press c_ape_C c_ake_C c_ape_Si c_ake_Si
451.847 -26.9969 -5.45636 0.0596474 -4.43558 0.0570967
Loop time of 9.30567 on 4 procs for 5000 steps with 1163 atoms

write_data SiC.data1_900_5_dt:0.0001
System init for write_data ...
clear
next p
jump SELF loop2
next t
jump SELF loop1
variable p index 1 2 5
label loop2
units metal
boundary p p p
atom_style atomic
lattice custom 6.711 a1 0.3671583967 0 0 a2 0.1835791983 0.3179684987 0 a3 0 0 1 basis 0.1 0.1 0.05 basis 0.433 0.433 0.55
Lattice spacing in x,y,z = 3.6960000 2.1338866 6.7110000
region 1 block 10.0 30.0 10.0 60.0 10.0 30.0 units lattice
region 2 cylinder y 20.0 20.0 2.5 27.0 43.0 units lattice
region 3 cylinder y 20.0 20.0 3.2 24.0 43.0 units lattice
region 4 cylinder y 20.0 20.0 2.5 20.0 27.0 units lattice
region 5 cylinder y 20.0 20.0 3.8 44.0 48.0 units lattice
region 6 cylinder y 20.0 20.0 2.5 20.0 43.0 units lattice
region 7 cylinder y 20.0 20.0 4.45 44.0 48.0 units lattice
region 8 cylinder y 20.0 20.2 3.2 20.0 23.0 units lattice
region 9 cylinder y 20.0 20.0 3.2 43.0 44.0 units lattice
region 10 cylinder y 20.0 20.0 3.8 43.0 44.0 units lattice
region 11 cylinder y 20.0 20.0 3.8 48.0 49.0 units lattice
region 12 cylinder y 20.0 20.2 3.8 19.0 20.0 units lattice
create_box 2 1
Created orthogonal box = (36.960000 21.338866 67.110000) to (110.88000 128.03320 201.33000)
create_atoms 1 region 3
Created 1016 atoms
lattice custom 6.711 a1 0.3671583967 0 0 a2 0.1835791983 0.3179684987 0 a3 0 0 1 basis 0.2667 0.2667 0.25 basis 0.6 0.6 0.75
Lattice spacing in x,y,z = 3.6960000 2.1338866 6.7110000
create_atoms 1 region 8
Created 161 atoms
delete_atoms region 6
Deleted 709 atoms, new total = 468
lattice custom 6.711 a1 0.3671583967 0 0 a2 0.1835791983 0.3179684987 0 a3 0 0 1 basis 0.1 0.1 0.05 basis 0.433 0.433 0.55
Lattice spacing in x,y,z = 3.6960000 2.1338866 6.7110000
create_atoms 1 region 7
Created 406 atoms
#create_atoms 1 region 10
delete_atoms region 5
Deleted 300 atoms, new total = 574
#delete_atoms region 9
mass 1 12.0107
lattice custom 5.4309 a1 1 0 0 a2 0 1 0 a3 0 0 1 basis 0.15 0.15 0.15 basis 0.65 0.65 0.15 basis 0.65 0.15 0.65 basis 0.15 0.65 0.65
Lattice spacing in x,y,z = 5.4309000 5.4309000 5.4309000
create_atoms 2 region 4
Created 95 atoms
create_atoms 2 region 9
Created 30 atoms
create_atoms 2 random 94 5628 5
Created 94 atoms
create_atoms 2 region 11
Created 42 atoms
lattice custom 5.4309 a1 1 0 0 a2 0 1 0 a3 0 0 1 basis 0.65 0.35 0.35 basis 0.65 0.85 0.85 basis 0.15 0.85 0.35 basis 0.15 0.85 0.0.85
Lattice spacing in x,y,z = 5.4309000 5.4309000 5.4309000
create_atoms 2 region 2
Created 264 atoms
create_atoms 2 region 12
Created 64 atoms
mass 2 28.0855
group 1 type 1
574 atoms in group 1
group 2 type 2
589 atoms in group 2
group 3 type 1
574 atoms in group 3
group 3 type 2
1163 atoms in group 3
pair_style kim Tersoff_LAMMPS_ErhartAlbe_2005SiII_SiC__MO_408791041969_003
pair_coeff * * C Si
neighbor 2.5 bin
neigh_modify every 1 delay 100
dump 1 all atom 100 dump.SiC_1000_1_dt:0.0001
compute 1 1 pe/atom
compute 2 1 ke/atom
compute 3 2 pe/atom
compute 4 2 ke/atom
compute ape_C 1 reduce ave c_1
compute ake_C 1 reduce ave c_2
compute ape_Si 2 reduce ave c_3
compute ake_Si 2 reduce ave c_4
velocity 3 zero linear
velocity 3 zero angular
fix 1 3 nvt temp 0.001 10.0 0.001 fixedpoint 20.0 35.0 20.0
thermo_style custom step temp press c_ape_C c_ake_C c_ape_Si c_ake_Si
thermo 100
timestep 0.0001
run 1000
  update every 1 steps, delay 100 steps, check yes
Step Temp Press c_ape_C c_ake_C c_ape_Si c_ake_Si
0            0    2916.2291  0.081050387            0   0.61957706            0
Averages over the last 6 of 11 rows, steps 500 to 1000:
Temp Press c_ape_C c_ake_C c_ape_Si c_ake_Si
1.09663e-15 1245.35 -0.329367 6.59084e-20 -0.691373 2.15421e-19
Loop time of 0.665244 on 4 procs for 1000 steps with 1163 atoms

reset_timestep 0
unfix 1
velocity 3 zero linear
velocity 3 zero angular
fix 1 3 nvt temp 10.0 300 0.001 fixedpoint 20.0 35.0 20.0
thermo_style custom step temp press c_ape_C c_ake_C c_ape_Si c_ake_Si
thermo 100
timestep 0.0001
run 1000
Step Temp Press c_ape_C c_ake_C c_ape_Si c_ake_Si
0 3.6714079e-15    973.07956  -0.36196846 2.1678981e-19  -0.84504783 7.2497313e-19
Averages over the last 6 of 11 rows, steps 500 to 1000:
Temp Press c_ape_C c_ake_C c_ape_Si c_ake_Si
230.565 -360.903 -0.89367 0.0381278 -2.13959 0.0216393
Loop time of 0.672263 on 4 procs for 1000 steps with 1163 atoms

reset_timestep 0
unfix 1
velocity 3 zero linear
velocity 3 zero angular
fix 1 3 npt temp 300 $t 0.001 iso $p $p 0.01 fixedpoint 20.0 35.0 20.0
fix 1 3 npt temp 300 1000 0.001 iso $p $p 0.01 fixedpoint 20.0 35.0 20.0
fix 1 3 npt temp 300 1000 0.001 iso 1 $p 0.01 fixedpoint 20.0 35.0 20.0
fix 1 3 npt temp 300 1000 0.001 iso 1 1 0.01 fixedpoint 20.0 35.0 20.0
thermo_style custom step temp press c_ape_C c_ake_C c_ape_Si c_ake_Si
thermo 100
timestep 0.0001
run 5000
Step Temp Press c_ape_C c_ake_C c_ape_Si c_ake_Si
0     304.3535   -333.94133   -1.0929785  0.058132477   -2.2405563  0.020960852
Averages over the last 26 of 51 rows, steps 2500 to 5000:
Temp Press c_ape_C c_ake_C c_ape_Si c_ake_Si
829.824 -2.08727 -3.37079 0.121521 -3.2415 0.0931867
Loop time of 5.40922 on 4 procs for 5000 steps with 1163 atoms

reset_timestep 0
unfix 1
velocity 3 zero linear
velocity 3 zero angular
velocity 3 create $t 12025
velocity 3 create 1000 12025
velocity 3 scale $t
velocity 3 scale 1000
fix 1 3 npt temp $t $t 0.001 iso $p $p 0.01 fixedpoint 20.0 35.0 20.0
fix 1 3 npt temp 1000 $t 0.001 iso $p $p 0.01 fixedpoint 20.0 35.0 20.0
fix 1 3 npt temp 1000 1000 0.001 iso $p $p 0.01 fixedpoint 20.0 35.0 20.0
fix 1 3 npt temp 1000 1000 0.001 iso 1 $p 0.01 fixedpoint 20.0 35.0 20.0
fix 1 3 npt temp 1000 1000 0.001 iso 1 1 0.01 fixedpoint 20.0 35.0 20.0
thermo_style custom step temp press c_ape_C c_ake_C c_ape_Si c_ake_Si
thermo 100
timestep 0.0001
run 50000
Step Temp Press c_ape_C c_ake_C c_ape_Si c_ake_Si
0         1000   -129.17646   -3.6873899   0.13319447   -3.5046409   0.12520656
Averages over the last 251 of 501 rows, steps 25000 to 50000:
Temp Press c_ape_C c_ake_C c_ape_Si c_ake_Si
999.206 -1.72535 -5.27572 0.132281 -4.342 0.125895
Loop time of 90.7422 on 4 procs for 50000 steps with 1163 atoms

reset_timestep 0
unfix 1
velocity 3 zero linear
velocity 3 zero angular
fix 1 3 nvt temp $t 300 0.001 fixedpoint 20.0 35.0 20.0
fix 1 3 nvt temp 1000 300 0.001 fixedpoint 20.0 35.0 20.0
thermo_style custom step temp press c_ape_C c_ake_C c_ape_Si c_ake_Si
thermo 100
timestep 0.0001
run 5000
Step Temp Press c_ape_C c_ake_C c_ape_Si c_ake_Si
0    974.14403   -58.017071   -5.3721493   0.12342712   -4.3759298   0.12813166
Averages over the last 26 of 51 rows, steps 2500 to 5000:
Temp Press c_ape_C c_ake_C c_ape_Si c_ake_Si
475.977 -37.5331 -5.44464 0.0612534 -4.4597 0.061685
Loop time of 9.21177 on 4 procs for 5000 steps with 1163 atoms

write_data SiC.data1_1000_1_dt:0.0001
System init for write_data ...
clear
next p
jump SELF loop2
units metal
boundary p p p
atom_style atomic
lattice custom 6.711 a1 0.3671583967 0 0 a2 0.1835791983 0.3179684987 0 a3 0 0 1 basis 0.1 0.1 0.05 basis 0.433 0.433 0.55
Lattice spacing in x,y,z = 3.6960000 2.1338866 6.7110000
region 1 block 10.0 30.0 10.0 60.0 10.0 30.0 units lattice
region 2 cylinder y 20.0 20.0 2.5 27.0 43.0 units lattice
region 3 cylinder y 20.0 20.0 3.2 24.0 43.0 units lattice
region 4 cylinder y 20.0 20.0 2.5 20.0 27.0 units lattice
region 5 cylinder y 20.0 20.0 3.8 44.0 48.0 units lattice
region 6 cylinder y 20.0 20.0 2.5 20.0 43.0 units lattice
region 7 cylinder y 20.0 20.0 4.45 44.0 48.0 units lattice
region 8 cylinder y 20.0 20.2 3.2 20.0 23.0 units lattice
region 9 cylinder y 20.0 20.0 3.2 43.0 44.0 units lattice
region 10 cylinder y 20.0 20.0 3.8 43.0 44.0 units lattice
region 11 cylinder y 20.0 20.0 3.8 48.0 49.0 units lattice
region 12 cylinder y 20.0 20.2 3.8 19.0 20.0 units lattice
create_box 2 1
Created orthogonal box = (36.960000 21.338866 67.110000) to (110.88000 128.03320 201.33000)
create_atoms 1 region 3
Created 1016 atoms
lattice custom 6.711 a1 0.3671583967 0 0 a2 0.1835791983 0.3179684987 0 a3 0 0 1 basis 0.2667 0.2667 0.25 basis 0.6 0.6 0.75
Lattice spacing in x,y,z = 3.6960000 2.1338866 6.7110000
create_atoms 1 region 8
Created 161 atoms
delete_atoms region 6
Deleted 709 atoms, new total = 468
lattice custom 6.711 a1 0.3671583967 0 0 a2 0.1835791983 0.3179684987 0 a3 0 0 1 basis 0.1 0.1 0.05 basis 0.433 0.433 0.55
Lattice spacing in x,y,z = 3.6960000 2.1338866 6.7110000
create_atoms 1 region 7
Created 406 atoms
#create_atoms 1 region 10
delete_atoms region 5
Deleted 300 atoms, new total = 574
#delete_atoms region 9
mass 1 12.0107
lattice custom 5.4309 a1 1 0 0 a2 0 1 0 a3 0 0 1 basis 0.15 0.15 0.15 basis 0.65 0.65 0.15 basis 0.65 0.15 0.65 basis 0.15 0.65 0.65
Lattice spacing in x,y,z = 5.4309000 5.4309000 5.4309000
create_atoms 2 region 4
Created 95 atoms
create_atoms 2 region 9
Created 30 atoms
create_atoms 2 random 94 5628 5
Created 94 atoms
create_atoms 2 region 11
Created 42 atoms
lattice custom 5.4309 a1 1 0 0 a2 0 1 0 a3 0 0 1 basis 0.65 0.35 0.35 basis 0.65 0.85 0.85 basis 0.15 0.85 0.35 basis 0.15 0.85 0.0.85
Lattice spacing in x,y,z = 5.4309000 5.4309000 5.4309000
create_atoms 2 region 2
Created 264 atoms
create_atoms 2 region 12
Created 64 atoms
mass 2 28.0855
group 1 type 1
574 atoms in group 1
group 2 type 2
589 atoms in group 2
group 3 type 1
574 atoms in group 3
group 3 type 2
1163 atoms in group 3
pair_style kim Tersoff_LAMMPS_ErhartAlbe_2005SiII_SiC__MO_408791041969_003
pair_coeff * * C Si
neighbor 2.5 bin
neigh_modify every 1 delay 100
dump 1 all atom 100 dump.SiC_1000_2_dt:0.0001
compute 1 1 pe/atom
compute 2 1 ke/atom
compute 3 2 pe/atom
compute 4 2 ke/atom
compute ape_C 1 reduce ave c_1
compute ake_C 1 reduce ave c_2
compute ape_Si 2 reduce ave c_3
compute ake_Si 2 reduce ave c_4
velocity 3 zero linear
velocity 3 zero angular
fix 1 3 nvt temp 0.001 10.0 0.001 fixedpoint 20.0 35.0 20.0
thermo_style custom step temp press c_ape_C c_ake_C c_ape_Si c_ake_Si
thermo 100
timestep 0.0001
run 1000
  update every 1 steps, delay 100 steps, check yes
Step Temp Press c_ape_C c_ake_C c_ape_Si c_ake_Si
0            0    2916.2291  0.081050387            0   0.61957706            0
Averages over the last 6 of 11 rows, steps 500 to 1000:
Temp Press c_ape_C c_ake_C c_ape_Si c_ake_Si
1.09663e-15 1245.35 -0.329367 6.59084e-20 -0.691373 2.15421e-19
Loop time of 0.665118 on 4 procs for 1000 steps with 1163 atoms

reset_timestep 0
unfix 1
velocity 3 zero linear
velocity 3 zero angular
fix 1 3 nvt temp 10.0 300 0.001 fixedpoint 20.0 35.0 20.0
thermo_style custom step temp press c_ape_C c_ake_C c_ape_Si c_ake_Si
thermo 100
timestep 0.0001
run 1000
Step Temp Press c_ape_C c_ake_C c_ape_Si c_ake_Si
0 3.6714079e-15    973.07956  -0.36196846 2.1678981e-19  -0.84504783 7.2497313e-19
Averages over the last 6 of 11 rows, steps 500 to 1000:
Temp Press c_ape_C c_ake_C c_ape_Si c_ake_Si
230.565 -360.903 -0.89367 0.0381278 -2.13959 0.0216393
Loop time of 0.671527 on 4 procs for 1000 steps with 1163 atoms

reset_timestep 0
unfix 1
velocity 3 zero linear
velocity 3 zero angular
fix 1 3 npt temp 300 $t 0.001 iso $p $p 0.01 fixedpoint 20.0 35.0 20.0
fix 1 3 npt temp 300 1000 0.001 iso $p $p 0.01 fixedpoint 20.0 35.0 20.0
fix 1 3 npt temp 300 1000 0.001 iso 2 $p 0.01 fixedpoint 20.0 35.0 20.0
fix 1 3 npt temp 300 1000 0.001 iso 2 2 0.01 fixedpoint 20.0 35.0 20.0
thermo_style custom step temp press c_ape_C c_ake_C c_ape_Si c_ake_Si
thermo 100
timestep 0.0001
run 5000
Step Temp Press c_ape_C c_ake_C c_ape_Si c_ake_Si
0     304.3535   -333.94133   -1.0929785  0.058132477   -2.2405563  0.020960852
Averages over the last 26 of 51 rows, steps 2500 to 5000:
Temp Press c_ape_C c_ake_C c_ape_Si c_ake_Si
832.483 13.8634 -3.33239 0.121714 -3.23747 0.0936762
Loop time of 5.35687 on 4 procs for 5000 steps with 1163 atoms

reset_timestep 0
unfix 1
velocity 3 zero linear
velocity 3 zero angular
velocity 3 create $t 12025
velocity 3 create 1000 12025
velocity 3 scale $t
velocity 3 scale 1000
fix 1 3 npt temp $t $t 0.001 iso $p $p 0.01 fixedpoint 20.0 35.0 20.0
fix 1 3 npt temp 1000 $t 0.001 iso $p $p 0.01 fixedpoint 20.0 35.0 20.0
fix 1 3 npt temp 1000 1000 0.001 iso $p $p 0.01 fixedpoint 20.0 35.0 20.0
fix 1 3 npt temp 1000 1000 0.001 iso 2 $p 0.01 fixedpoint 20.0 35.0 20.0
fix 1 3 npt temp 1000 1000 0.001 iso 2 2 0.01 fixedpoint 20.0 35.0 20.0
thermo_style custom step temp press c_ape_C c_ake_C c_ape_Si c_ake_Si
thermo 100
timestep 0.0001
run 50000
Step Temp Press c_ape_C c_ake_C c_ape_Si c_ake_Si
0         1000   -63.822945    -3.654372   0.13319447   -3.5001487   0.12520656
Averages over the last 251 of 501 rows, steps 25000 to 50000:
Temp Press c_ape_C c_ake_C c_ape_Si c_ake_Si
1001.56 0.42385 -5.32501 0.136276 -4.30529 0.122601
Loop time of 92.4307 on 4 procs for 50000 steps with 1163 atoms

reset_timestep 0
unfix 1
velocity 3 zero linear
velocity 3 zero angular
fix 1 3 nvt temp $t 300 0.001 fixedpoint 20.0 35.0 20.0
fix 1 3 nvt temp 1000 300 0.001 fixedpoint 20.0 35.0 20.0
thermo_style custom step temp press c_ape_C c_ake_C c_ape_Si c_ake_Si
thermo 100
timestep 0.0001
run 5000
Step Temp Press c_ape_C c_ake_C c_ape_Si c_ake_Si
0    1005.3082    -12.44959   -5.4107411   0.13296287   -4.3292458   0.12678589
Averages over the last 26 of 51 rows, steps 2500 to 5000:
Temp Press c_ape_C c_ake_C c_ape_Si c_ake_Si
476.589 -18.0842 -5.49095 0.0628211 -4.4186 0.0603133
Loop time of 8.99137 on 4 procs for 5000 steps with 1163 atoms

write_data SiC.data1_1000_2_dt:0.0001
System init for write_data ...
clear
next p
jump SELF loop2
units metal
boundary p p p
atom_style atomic
lattice custom 6.711 a1 0.3671583967 0 0 a2 0.1835791983 0.3179684987 0 a3 0 0 1 basis 0.1 0.1 0.05 basis 0.433 0.433 0.55
Lattice spacing in x,y,z = 3.6960000 2.1338866 6.7110000
region 1 block 10.0 30.0 10.0 60.0 10.0 30.0 units lattice
region 2 cylinder y 20.0 20.0 2.5 27.0 43.0 units lattice
region 3 cylinder y 20.0 20.0 3.2 24.0 43.0 units lattice
region 4 cylinder y 20.0 20.0 2.5 20.0 27.0 units lattice
region 5 cylinder y 20.0 20.0 3.8 44.0 48.0 units lattice
region 6 cylinder y 20.0 20.0 2.5 20.0 43.0 units lattice
region 7 cylinder y 20.0 20.0 4.45 44.0 48.0 units lattice
region 8 cylinder y 20.0 20.2 3.2 20.0 23.0 units lattice
region 9 cylinder y 20.0 20.0 3.2 43.0 44.0 units lattice
region 10 cylinder y 20.0 20.0 3.8 43.0 44.0 units lattice
region 11 cylinder y 20.0 20.0 3.8 48.0 49.0 units lattice
region 12 cylinder y 20.0 20.2 3.8 19.0 20.0 units lattice
create_box 2 1
Created orthogonal box = (36.960000 21.338866 67.110000) to (110.88000 128.03320 201.33000)
create_atoms 1 region 3
Created 1016 atoms
lattice custom 6.711 a1 0.3671583967 0 0 a2 0.1835791983 0.3179684987 0 a3 0 0 1 basis 0.2667 0.2667 0.25 basis 0.6 0.6 0.75
Lattice spacing in x,y,z = 3.6960000 2.1338866 6.7110000
create_atoms 1 region 8
Created 161 atoms
delete_atoms region 6
Deleted 709 atoms, new total = 468
lattice custom 6.711 a1 0.3671583967 0 0 a2 0.1835791983 0.3179684987 0 a3 0 0 1 basis 0.1 0.1 0.05 basis 0.433 0.433 0.55
Lattice spacing in x,y,z = 3.6960000 2.1338866 6.7110000
create_atoms 1 region 7
Created 406 atoms
#create_atoms 1 region 10
delete_atoms region 5
Deleted 300 atoms, new total = 574
#delete_atoms region 9
mass 1 12.0107
lattice custom 5.4309 a1 1 0 0 a2 0 1 0 a3 0 0 1 basis 0.15 0.15 0.15 basis 0.65 0.65 0.15 basis 0.65 0.15 0.65 basis 0.15 0.65 0.65
Lattice spacing in x,y,z = 5.4309000 5.4309000 5.4309000
create_atoms 2 region 4
Created 95 atoms
create_atoms 2 region 9
Created 30 atoms
create_atoms 2 random 94 5628 5
Created 94 atoms
create_atoms 2 region 11
Created 42 atoms
lattice custom 5.4309 a1 1 0 0 a2 0 1 0 a3 0 0 1 basis 0.65 0.35 0.35 basis 0.65 0.85 0.85 basis 0.15 0.85 0.35 basis 0.15 0.85 0.0.85
Lattice spacing in x,y,z = 5.4309000 5.4309000 5.4309000
create_atoms 2 region 2
Created 264 atoms
create_atoms 2 region 12
Created 64 atoms
mass 2 28.0855
group 1 type 1
574 atoms in group 1
group 2 type 2
589 atoms in group 2
group 3 type 1
574 atoms in group 3
group 3 type 2
1163 atoms in group 3
pair_style kim Tersoff_LAMMPS_ErhartAlbe_2005SiII_SiC__MO_408791041969_003
pair_coeff * * C Si
neighbor 2.5 bin
neigh_modify every 1 delay 100
dump 1 all atom 100 dump.SiC_1000_5_dt:0.0001
compute 1 1 pe/atom
compute 2 1 ke/atom
compute 3 2 pe/atom
compute 4 2 ke/atom
compute ape_C 1 reduce ave c_1
compute ake_C 1 reduce ave c_2
compute ape_Si 2 reduce ave c_3
compute ake_Si 2 reduce ave c_4
velocity 3 zero linear
velocity 3 zero angular
fix 1 3 nvt temp 0.001 10.0 0.001 fixedpoint 20.0 35.0 20.0
thermo_style custom step temp press c_ape_C c_ake_C c_ape_Si c_ake_Si
thermo 100
timestep 0.0001
run 1000
  update every 1 steps, delay 100 steps, check yes
Step Temp Press c_ape_C c_ake_C c_ape_Si c_ake_Si
0            0    2916.2291  0.081050387            0   0.61957706            0
Averages over the last 6 of 11 rows, steps 500 to 1000:
Temp Press c_ape_C c_ake_C c_ape_Si c_ake_Si
1.09663e-15 1245.35 -0.329367 6.59084e-20 -0.691373 2.15421e-19
Loop time of 0.664244 on 4 procs for 1000 steps with 1163 atoms

reset_timestep 0
unfix 1
velocity 3 zero linear
velocity 3 zero angular
fix 1 3 nvt temp 10.0 300 0.001 fixedpoint 20.0 35.0 20.0
thermo_style custom step temp press c_ape_C c_ake_C c_ape_Si c_ake_Si
thermo 100
timestep 0.0001
run 1000
Step Temp Press c_ape_C c_ake_C c_ape_Si c_ake_Si
0 3.6714079e-15    973.07956  -0.36196846 2.1678981e-19  -0.84504783 7.2497313e-19
Averages over the last 6 of 11 rows, steps 500 to 1000:
Temp Press c_ape_C c_ake_C c_ape_Si c_ake_Si
230.565 -360.903 -0.89367 0.0381278 -2.13959 0.0216393
Loop time of 0.671382 on 4 procs for 1000 steps with 1163 atoms

reset_timestep 0
unfix 1
velocity 3 zero linear
velocity 3 zero angular
fix 1 3 npt temp 300 $t 0.001 iso $p $p 0.01 fixedpoint 20.0 35.0 20.0
fix 1 3 npt temp 300 1000 0.001 iso $p $p 0.01 fixedpoint 20.0 35.0 20.0
fix 1 3 npt temp 300 1000 0.001 iso 5 $p 0.01 fixedpoint 20.0 35.0 20.0
fix 1 3 npt temp 300 1000 0.001 iso 5 5 0.01 fixedpoint 20.0 35.0 20.0
thermo_style custom step temp press c_ape_C c_ake_C c_ape_Si c_ake_Si
thermo 100
timestep 0.0001
run 5000
Step Temp Press c_ape_C c_ake_C c_ape_Si c_ake_Si
0     304.3535   -333.94133   -1.0929785  0.058132477   -2.2405563  0.020960852
Averages over the last 26 of 51 rows, steps 2500 to 5000:
Temp Press c_ape_C c_ake_C c_ape_Si c_ake_Si
823.754 -25.7126 -3.38245 0.117033 -3.27013 0.096012
Loop time of 5.48062 on 4 procs for 5000 steps with 1163 atoms

reset_timestep 0
unfix 1
velocity 3 zero linear
velocity 3 zero angular
velocity 3 create $t 12025
velocity 3 create 1000 12025
velocity 3 scale $t
velocity 3 scale 1000
fix 1 3 npt temp $t $t 0.001 iso $p $p 0.01 fixedpoint 20.0 35.0 20.0
fix 1 3 npt temp 1000 $t 0.001 iso $p $p 0.01 fixedpoint 20.0 35.0 20.0
fix 1 3 npt temp 1000 1000 0.001 iso $p $p 0.01 fixedpoint 20.0 35.0 20.0
fix 1 3 npt temp 1000 1000 0.001 iso 5 $p 0.01 fixedpoint 20.0 35.0 20.0
fix 1 3 npt temp 1000 1000 0.001 iso 5 5 0.01 fixedpoint 20.0 35.0 20.0
thermo_style custom step temp press c_ape_C c_ake_C c_ape_Si c_ake_Si
thermo 100
timestep 0.0001
run 50000
Step Temp Press c_ape_C c_ake_C c_ape_Si c_ake_Si
0         1000   -50.108019   -3.6966286   0.13319447   -3.5450662   0.12520656
Averages over the last 251 of 501 rows, steps 25000 to 50000:
Temp Press c_ape_C c_ake_C c_ape_Si c_ake_Si
999.079 3.68442 -5.35048 0.1321 -4.31822 0.126039
Loop time of 92.5458 on 4 procs for 50000 steps with 1163 atoms

reset_timestep 0
unfix 1
velocity 3 zero linear
velocity 3 zero angular
fix 1 3 nvt temp $t 300 0.001 fixedpoint 20.0 35.0 20.0
fix 1 3 nvt temp 1000 300 0.001 fixedpoint 20.0 35.0 20.0
thermo_style custom step temp press c_ape_C c_ake_C c_ape_Si c_ake_Si
thermo 100
timestep 0.0001
run 5000
Step Temp Press c_ape_C c_ake_C c_ape_Si c_ake_Si
0    1063.3425    227.24454   -5.4529484   0.13327514   -4.3773741   0.14128084
Averages over the last 26 of 51 rows, steps 2500 to 5000:
Temp Press c_ape_C c_ake_C c_ape_Si c_ake_Si
475.287 1.9421 -5.53835 0.06018 -4.46101 0.0625552
Loop time of 9.73944 on 4 procs for 5000 steps with 1163 atoms

write_data SiC.data1_1000_5_dt:0.0001
System init for write_data ...
clear
next p
jump SELF loop2
next t
jump SELF loop1
variable p index 1 2 5
label loop2
units metal
boundary p p p
atom_style atomic
lattice custom 6.711 a1 0.3671583967 0 0 a2 0.1835791983 0.3179684987 0 a3 0 0 1 basis 0.1 0.1 0.05 basis 0.433 0.433 0.55
Lattice spacing in x,y,z = 3.6960000 2.1338866 6.7110000
region 1 block 10.0 30.0 10.0 60.0 10.0 30.0 units lattice
region 2 cylinder y 20.0 20.0 2.5 27.0 43.0 units lattice
region 3 cylinder y 20.0 20.0 3.2 24.0 43.0 units lattice
region 4 cylinder y 20.0 20.0 2.5 20.0 27.0 units lattice
region 5 cylinder y 20.0 20.0 3.8 44.0 48.0 units lattice
region 6 cylinder y 20.0 20.0 2.5 20.0 43.0 units lattice
region 7 cylinder y 20.0 20.0 4.45 44.0 48.0 units lattice
region 8 cylinder y 20.0 20.2 3.2 20.0 23.0 units lattice
region 9 cylinder y 20.0 20.0 3.2 43.0 44.0 units lattice
region 10 cylinder y 20.0 20.0 3.8 43.0 44.0 units lattice
region 11 cylinder y 20.0 20.0 3.8 48.0 49.0 units lattice
region 12 cylinder y 20.0 20.2 3.8 19.0 20.0 units lattice
create_box 2 1
Created orthogonal box = (36.960000 21.338866 67.110000) to (110.88000 128.03320 201.33000)
create_atoms 1 region 3
Created 1016 atoms
lattice custom 6.711 a1 0.3671583967 0 0 a2 0.1835791983 0.3179684987 0 a3 0 0 1 basis 0.2667 0.2667 0.25 basis 0.6 0.6 0.75
Lattice spacing in x,y,z = 3.6960000 2.1338866 6.7110000
create_atoms 1 region 8
Created 161 atoms
delete_atoms region 6
Deleted 709 atoms, new total = 468
lattice custom 6.711 a1 0.3671583967 0 0 a2 0.1835791983 0.3179684987 0 a3 0 0 1 basis 0.1 0.1 0.05 basis 0.433 0.433 0.55
Lattice spacing in x,y,z = 3.6960000 2.1338866 6.7110000
create_atoms 1 region 7
Created 406 atoms
#create_atoms 1 region 10
delete_atoms region 5
Deleted 300 atoms, new total = 574
#delete_atoms region 9
mass 1 12.0107
lattice custom 5.4309 a1 1 0 0 a2 0 1 0 a3 0 0 1 basis 0.15 0.15 0.15 basis 0.65 0.65 0.15 basis 0.65 0.15 0.65 basis 0.15 0.65 0.65
Lattice spacing in x,y,z = 5.4309000 5.4309000 5.4309000
create_atoms 2 region 4
Created 95 atoms
create_atoms 2 region 9
Created 30 atoms
create_atoms 2 random 94 5628 5
Created 94 atoms
create_atoms 2 region 11
Created 42 atoms
lattice custom 5.4309 a1 1 0 0 a2 0 1 0 a3 0 0 1 basis 0.65 0.35 0.35 basis 0.65 0.85 0.85 basis 0.15 0.85 0.35 basis 0.15 0.85 0.0.85
Lattice spacing in x,y,z = 5.4309000 5.4309000 5.4309000
create_atoms 2 region 2
Created 264 atoms
create_atoms 2 region 12
Created 64 atoms
mass 2 28.0855
group 1 type 1
574 atoms in group 1
group 2 type 2
589 atoms in group 2
group 3 type 1
574 atoms in group 3
group 3 type 2
1163 atoms in group 3
pair_style kim Tersoff_LAMMPS_ErhartAlbe_2005SiII_SiC__MO_408791041969_003
pair_coeff * * C Si
neighbor 2.5 bin
neigh_modify every 1 delay 100
dump 1 all atom 100 dump.SiC_1500_1_dt:0.0001
compute 1 1 pe/atom
compute 2 1 ke/atom
compute 3 2 pe/atom
compute 4 2 ke/atom
compute ape_C 1 reduce ave c_1
compute ake_C 1 reduce ave c_2
compute ape_Si 2 reduce ave c_3
compute ake_Si 2 reduce ave c_4
velocity 3 zero linear
velocity 3 zero angular
fix 1 3 nvt temp 0.001 10.0 0.001 fixedpoint 20.0 35.0 20.0
thermo_style custom step temp press c_ape_C c_ake_C c_ape_Si c_ake_Si
thermo 100
timestep 0.0001
run 1000
  update every 1 steps, delay 100 steps, check yes
Step Temp Press c_ape_C c_ake_C c_ape_Si c_ake_Si
0            0    2916.2291  0.081050387            0   0.61957706            0
Averages over the last 6 of 11 rows, steps 500 to 1000:
Temp Press c_ape_C c_ake_C c_ape_Si c_ake_Si
1.09663e-15 1245.35 -0.329367 6.59084e-20 -0.691373 2.15421e-19
Loop time of 0.664594 on 4 procs for 1000 steps with 1163 atoms

reset_timestep 0
unfix 1
velocity 3 zero linear
velocity 3 zero angular
fix 1 3 nvt temp 10.0 300 0.001 fixedpoint 20.0 35.0 20.0
thermo_style custom step temp press c_ape_C c_ake_C c_ape_Si c_ake_Si
thermo 100
timestep 0.0001
run 1000
Step Temp Press c_ape_C c_ake_C c_ape_Si c_ake_Si
0 3.6714079e-15    973.07956  -0.36196846 2.1678981e-19  -0.84504783 7.2497313e-19
Averages over the last 6 of 11 rows, steps 500 to 1000:
Temp Press c_ape_C c_ake_C c_ape_Si c_ake_Si
230.565 -360.903 -0.89367 0.0381278 -2.13959 0.0216393
Loop time of 0.671746 on 4 procs for 1000 steps with 1163 atoms

reset_timestep 0
unfix 1
velocity 3 zero linear
velocity 3 zero angular
fix 1 3 npt temp 300 $t 0.001 iso $p $p 0.01 fixedpoint 20.0 35.0 20.0
fix 1 3 npt temp 300 1500 0.001 iso $p $p 0.01 fixedpoint 20.0 35.0 20.0
fix 1 3 npt temp 300 1500 0.001 iso 1 $p 0.01 fixedpoint 20.0 35.0 20.0
fix 1 3 npt temp 300 1500 0.001 iso 1 1 0.01 fixedpoint 20.0 35.0 20.0
thermo_style custom step temp press c_ape_C c_ake_C c_ape_Si c_ake_Si
thermo 100
timestep 0.0001
run 5000
Step Temp Press c_ape_C c_ake_C c_ape_Si c_ake_Si
0     304.3535   -333.94133   -1.0929785  0.058132477   -2.2405563  0.020960852
Averages over the last 26 of 51 rows, steps 2500 to 5000:
Temp Press c_ape_C c_ake_C c_ape_Si c_ake_Si
1203.41 33.947 -3.29133 0.168087 -3.27482 0.143075
Loop time of 5.53794 on 4 procs for 5000 steps with 1163 atoms

reset_timestep 0
unfix 1
velocity 3 zero linear
velocity 3 zero angular
velocity 3 create $t 12025
velocity 3 create 1500 12025
velocity 3 scale $t
velocity 3 scale 1500
fix 1 3 npt temp $t $t 0.001 iso $p $p 0.01 fixedpoint 20.0 35.0 20.0
fix 1 3 npt temp 1500 $t 0.001 iso $p $p 0.01 fixedpoint 20.0 35.0 20.0
fix 1 3 npt temp 1500 1500 0.001 iso $p $p 0.01 fixedpoint 20.0 35.0 20.0
fix 1 3 npt temp 1500 1500 0.001 iso 1 $p 0.01 fixedpoint 20.0 35.0 20.0
fix 1 3 npt temp 1500 1500 0.001 iso 1 1 0.01 fixedpoint 20.0 35.0 20.0
thermo_style custom step temp press c_ape_C c_ake_C c_ape_Si c_ake_Si
thermo 100
timestep 0.0001
run 50000
Step Temp Press c_ape_C c_ake_C c_ape_Si c_ake_Si
0         1500    -30.11437   -3.6066202   0.19979171   -3.5830743   0.18780984
Averages over the last 251 of 501 rows, steps 25000 to 50000:
Temp Press c_ape_C c_ake_C c_ape_Si c_ake_Si
1499.66 0.897588 -5.37935 0.194085 -4.32586 0.193283
Loop time of 96.9322 on 4 procs for 50000 steps with 1163 atoms

reset_timestep 0
unfix 1
velocity 3 zero linear
velocity 3 zero angular
fix 1 3 nvt temp $t 300 0.001 fixedpoint 20.0 35.0 20.0
fix 1 3 nvt temp 1500 300 0.001 fixedpoint 20.0 35.0 20.0
thermo_style custom step temp press c_ape_C c_ake_C c_ape_Si c_ake_Si
thermo 100
timestep 0.0001
run 5000
Step Temp Press c_ape_C c_ake_C c_ape_Si c_ake_Si
0    1496.2418    123.25711   -5.4882187   0.18649445   -4.3443638   0.19981008
Averages over the last 26 of 51 rows, steps 2500 to 5000:
Temp Press c_ape_C c_ake_C c_ape_Si c_ake_Si
600.872 45.3766 -5.59466 0.0743435 -4.47141 0.0807776
Loop time of 10.6073 on 4 procs for 5000 steps with 1163 atoms

write_data SiC.data1_1500_1_dt:0.0001
System init for write_data ...
clear
next p
jump SELF loop2
units metal
boundary p p p
atom_style atomic
lattice custom 6.711 a1 0.3671583967 0 0 a2 0.1835791983 0.3179684987 0 a3 0 0 1 basis 0.1 0.1 0.05 basis 0.433 0.433 0.55
Lattice spacing in x,y,z = 3.6960000 2.1338866 6.7110000
region 1 block 10.0 30.0 10.0 60.0 10.0 30.0 units lattice
region 2 cylinder y 20.0 20.0 2.5 27.0 43.0 units lattice
region 3 cylinder y 20.0 20.0 3.2 24.0 43.0 units lattice
region 4 cylinder y 20.0 20.0 2.5 20.0 27.0 units lattice
region 5 cylinder y 20.0 20.0 3.8 44.0 48.0 units lattice
region 6 cylinder y 20.0 20.0 2.5 20.0 43.0 units lattice
region 7 cylinder y 20.0 20.0 4.45 44.0 48.0 units lattice
region 8 cylinder y 20.0 20.2 3.2 20.0 23.0 units lattice
region 9 cylinder y 20.0 20.0 3.2 43.0 44.0 units lattice
region 10 cylinder y 20.0 20.0 3.8 43.0 44.0 units lattice
region 11 cylinder y 20.0 20.0 3.8 48.0 49.0 units lattice
region 12 cylinder y 20.0 20.2 3.8 19.0 20.0 units lattice
create_box 2 1
Created orthogonal box = (36.960000 21.338866 67.110000) to (110.88000 128.03320 201.33000)
create_atoms 1 region 3
Created 1016 atoms
lattice custom 6.711 a1 0.3671583967 0 0 a2 0.1835791983 0.3179684987 0 a3 0 0 1 basis 0.2667 0.2667 0.25 basis 0.6 0.6 0.75
Lattice spacing in x,y,z = 3.6960000 2.1338866 6.7110000
create_atoms 1 region 8
Created 161 atoms
delete_atoms region 6
Deleted 709 atoms, new total = 468
lattice custom 6.711 a1 0.3671583967 0 0 a2 0.1835791983 0.3179684987 0 a3 0 0 1 basis 0.1 0.1 0.05 basis 0.433 0.433 0.55
Lattice spacing in x,y,z = 3.6960000 2.1338866 6.7110000
create_atoms 1 region 7
Created 406 atoms
#create_atoms 1 region 10
delete_atoms region 5
Deleted 300 atoms, new total = 574
#delete_atoms region 9
mass 1 12.0107
lattice custom 5.4309 a1 1 0 0 a2 0 1 0 a3 0 0 1 basis 0.15 0.15 0.15 basis 0.65 0.65 0.15 basis 0.65 0.15 0.65 basis 0.15 0.65 0.65
Lattice spacing in x,y,z = 5.4309000 5.4309000 5.4309000
create_atoms 2 region 4
Created 95 atoms
create_atoms 2 region 9
Created 30 atoms
create_atoms 2 random 94 5628 5
Created 94 atoms
create_atoms 2 region 11
Created 42 atoms
lattice custom 5.4309 a1 1 0 0 a2 0 1 0 a3 0 0 1 basis 0.65 0.35 0.35 basis 0.65 0.85 0.85 basis 0.15 0.85 0.35 basis 0.15 0.85 0.0.85
Lattice spacing in x,y,z = 5.4309000 5.4309000 5.4309000
create_atoms 2 region 2
Created 264 atoms
create_atoms 2 region 12
Created 64 atoms
mass 2 28.0855
group 1 type 1
574 atoms in group 1
group 2 type 2
589 atoms in group 2
group 3 type 1
574 atoms in group 3
group 3 type 2
1163 atoms in group 3
pair_style kim Tersoff_LAMMPS_ErhartAlbe_2005SiII_SiC__MO_408791041969_003
pair_coeff * * C Si
neighbor 2.5 bin
neigh_modify every 1 delay 100
dump 1 all atom 100 dump.SiC_1500_2_dt:0.0001
compute 1 1 pe/atom
compute 2 1 ke/atom
compute 3 2 pe/atom
compute 4 2 ke/atom
compute ape_C 1 reduce ave c_1
compute ake_C 1 reduce ave c_2
compute ape_Si 2 reduce ave c_3
compute ake_Si 2 reduce ave c_4
velocity 3 zero linear
velocity 3 zero angular
fix 1 3 nvt temp 0.001 10.0 0.001 fixedpoint 20.0 35.0 20.0
thermo_style custom step temp press c_ape_C c_ake_C c_ape_Si c_ake_Si
thermo 100
timestep 0.0001
run 1000
  update every 1 steps, delay 100 steps, check yes
Step Temp Press c_ape_C c_ake_C c_ape_Si c_ake_Si
0            0    2916.2291  0.081050387            0   0.61957706            0
Averages over the last 6 of 11 rows, steps 500 to 1000:
Temp Press c_ape_C c_ake_C c_ape_Si c_ake_Si
1.09663e-15 1245.35 -0.329367 6.59084e-20 -0.691373 2.15421e-19
Loop time of 0.661608 on 4 procs for 1000 steps with 1163 atoms

reset_timestep 0
unfix 1
velocity 3 zero linear
velocity 3 zero angular
fix 1 3 nvt temp 10.0 300 0.001 fixedpoint 20.0 35.0 20.0
thermo_style custom step temp press c_ape_C c_ake_C c_ape_Si c_ake_Si
thermo 100
timestep 0.0001
run 1000
Step Temp Press c_ape_C c_ake_C c_ape_Si c_ake_Si
0 3.6714079e-15    973.07956  -0.36196846 2.1678981e-19  -0.84504783 7.2497313e-19
Averages over the last 6 of 11 rows, steps 500 to 1000:
Temp Press c_ape_C c_ake_C c_ape_Si c_ake_Si
230.565 -360.903 -0.89367 0.0381278 -2.13959 0.0216393
Loop time of 0.670175 on 4 procs for 1000 steps with 1163 atoms

reset_timestep 0
unfix 1
velocity 3 zero linear
velocity 3 zero angular
fix 1 3 npt temp 300 $t 0.001 iso $p $p 0.01 fixedpoint 20.0 35.0 20.0
fix 1 3 npt temp 300 1500 0.001 iso $p $p 0.01 fixedpoint 20.0 35.0 20.0
fix 1 3 npt temp 300 1500 0.001 iso 2 $p 0.01 fixedpoint 20.0 35.0 20.0
fix 1 3 npt temp 300 1500 0.001 iso 2 2 0.01 fixedpoint 20.0 35.0 20.0
thermo_style custom step temp press c_ape_C c_ake_C c_ape_Si c_ake_Si
thermo 100
timestep 0.0001
run 5000
Step Temp Press c_ape_C c_ake_C c_ape_Si c_ake_Si
0     304.3535   -333.94133   -1.0929785  0.058132477   -2.2405563  0.020960852
Averages over the last 26 of 51 rows, steps 2500 to 5000:
Temp Press c_ape_C c_ake_C c_ape_Si c_ake_Si
1205.37 -25.3514 -3.3414 0.170823 -3.28128 0.140907
Loop time of 5.43243 on 4 procs for 5000 steps with 1163 atoms

reset_timestep 0
unfix 1
velocity 3 zero linear
velocity 3 zero angular
velocity 3 create $t 12025
velocity 3 create 1500 12025
velocity 3 scale $t
velocity 3 scale 1500
fix 1 3 npt temp $t $t 0.001 iso $p $p 0.01 fixedpoint 20.0 35.0 20.0
fix 1 3 npt temp 1500 $t 0.001 iso $p $p 0.01 fixedpoint 20.0 35.0 20.0
fix 1 3 npt temp 1500 1500 0.001 iso $p $p 0.01 fixedpoint 20.0 35.0 20.0
fix 1 3 npt temp 1500 1500 0.001 iso 2 $p 0.01 fixedpoint 20.0 35.0 20.0
fix 1 3 npt temp 1500 1500 0.001 iso 2 2 0.01 fixedpoint 20.0 35.0 20.0
thermo_style custom step temp press c_ape_C c_ake_C c_ape_Si c_ake_Si
thermo 100
timestep 0.0001
run 50000
Step Temp Press c_ape_C c_ake_C c_ape_Si c_ake_Si
0         1500    66.490549     -3.67098   0.19979171   -3.5859101   0.18780984
Averages over the last 251 of 501 rows, steps 25000 to 50000:
Temp Press c_ape_C c_ake_C c_ape_Si c_ake_Si
1498.07 4.78235 -5.23767 0.195632 -4.26942 0.191371
Loop time of 89.4772 on 4 procs for 50000 steps with 1163 atoms

reset_timestep 0
unfix 1
velocity 3 zero linear
velocity 3 zero angular
fix 1 3 nvt temp $t 300 0.001 fixedpoint 20.0 35.0 20.0
fix 1 3 nvt temp 1500 300 0.001 fixedpoint 20.0 35.0 20.0
thermo_style custom step temp press c_ape_C c_ake_C c_ape_Si c_ake_Si
thermo 100
timestep 0.0001
run 5000
Step Temp Press c_ape_C c_ake_C c_ape_Si c_ake_Si
0    1531.0554   -56.770083   -5.3372731   0.18822614   -4.2826058   0.20700028
Averages over the last 26 of 51 rows, steps 2500 to 5000:
Temp Press c_ape_C c_ake_C c_ape_Si c_ake_Si
601.837 -1.05443 -5.45823 0.0759514 -4.4241 0.0794568
Loop time of 9.36594 on 4 procs for 5000 steps with 1163 atoms

write_data SiC.data1_1500_2_dt:0.0001
System init for write_data ...
clear
next p
jump SELF loop2
units metal
boundary p p p
atom_style atomic
lattice custom 6.711 a1 0.3671583967 0 0 a2 0.1835791983 0.3179684987 0 a3 0 0 1 basis 0.1 0.1 0.05 basis 0.433 0.433 0.55
Lattice spacing in x,y,z = 3.6960000 2.1338866 6.7110000
region 1 block 10.0 30.0 10.0 60.0 10.0 30.0 units lattice
region 2 cylinder y 20.0 20.0 2.5 27.0 43.0 units lattice
region 3 cylinder y 20.0 20.0 3.2 24.0 43.0 units lattice
region 4 cylinder y 20.0 20.0 2.5 20.0 27.0 units lattice
region 5 cylinder y 20.0 20.0 3.8 44.0 48.0 units lattice
region 6 cylinder y 20.0 20.0 2.5 20.0 43.0 units lattice
region 7 cylinder y 20.0 20.0 4.45 44.0 48.0 units lattice
region 8 cylinder y 20.0 20.2 3.2 20.0 23.0 units lattice
region 9 cylinder y 20.0 20.0 3.2 43.0 44.0 units lattice
region 10 cylinder y 20.0 20.0 3.8 43.0 44.0 units lattice
region 11 cylinder y 20.0 20.0 3.8 48.0 49.0 units lattice
region 12 cylinder y 20.0 20.2 3.8 19.0 20.0 units lattice
create_box 2 1
Created orthogonal box = (36.960000 21.338866 67.110000) to (110.88000 128.03320 201.33000)
create_atoms 1 region 3
Created 1016 atoms
lattice custom 6.711 a1 0.3671583967 0 0 a2 0.1835791983 0.3179684987 0 a3 0 0 1 basis 0.2667 0.2667 0.25 basis 0.6 0.6 0.75
Lattice spacing in x,y,z = 3.6960000 2.1338866 6.7110000
create_atoms 1 region 8
Created 161 atoms
delete_atoms region 6
Deleted 709 atoms, new total = 468
lattice custom 6.711 a1 0.3671583967 0 0 a2 0.1835791983 0.3179684987 0 a3 0 0 1 basis 0.1 0.1 0.05 basis 0.433 0.433 0.55
Lattice spacing in x,y,z = 3.6960000 2.1338866 6.7110000
create_atoms 1 region 7
Created 406 atoms
#create_atoms 1 region 10
delete_atoms region 5
Deleted 300 atoms, new total = 574
#delete_atoms region 9
mass 1 12.0107
lattice custom 5.4309 a1 1 0 0 a2 0 1 0 a3 0 0 1 basis 0.15 0.15 0.15 basis 0.65 0.65 0.15 basis 0.65 0.15 0.65 basis 0.15 0.65 0.65
Lattice spacing in x,y,z = 5.4309000 5.4309000 5.4309000
create_atoms 2 region 4
Created 95 atoms
create_atoms 2 region 9
Created 30 atoms
create_atoms 2 random 94 5628 5
Created 94 atoms
create_atoms 2 region 11
Created 42 atoms
lattice custom 5.4309 a1 1 0 0 a2 0 1 0 a3 0 0 1 basis 0.65 0.35 0.35 basis 0.65 0.85 0.85 basis 0.15 0.85 0.35 basis 0.15 0.85 0.0.85
Lattice spacing in x,y,z = 5.4309000 5.4309000 5.4309000
create_atoms 2 region 2
Created 264 atoms
create_atoms 2 region 12
Created 64 atoms
mass 2 28.0855
group 1 type 1
574 atoms in group 1
group 2 type 2
589 atoms in group 2
group 3 type 1
574 atoms in group 3
group 3 type 2
1163 atoms in group 3
pair_style kim Tersoff_LAMMPS_ErhartAlbe_2005SiII_SiC__MO_408791041969_003
pair_coeff * * C Si
neighbor 2.5 bin
neigh_modify every 1 delay 100
dump 1 all atom 100 dump.SiC_1500_5_dt:0.0001
compute 1 1 pe/atom
compute 2 1 ke/atom
compute 3 2 pe/atom
compute 4 2 ke/atom
compute ape_C 1 reduce ave c_1
compute ake_C 1 reduce ave c_2
compute ape_Si 2 reduce ave c_3
compute ake_Si 2 reduce ave c_4
velocity 3 zero linear
velocity 3 zero angular
fix 1 3 nvt temp 0.001 10.0 0.001 fixedpoint 20.0 35.0 20.0
thermo_style custom step temp press c_ape_C c_ake_C c_ape_Si c_ake_Si
thermo 100
timestep 0.0001
run 1000
  update every 1 steps, delay 100 steps, check yes
Loop time of 0.661037 on 4 procs for 1000 steps with 1163 atoms

reset_timestep 0
unfix 1
velocity 3 zero linear
velocity 3 zero angular
fix 1 3 nvt temp 10.0 300 0.001 fixedpoint 20.0 35.0 20.0
thermo_style custom step temp press c_ape_C c_ake_C c_ape_Si c_ake_Si
thermo 100
timestep 0.0001
run 1000
Loop time of 0.669007 on 4 procs for 1000 steps with 1163 atoms

reset_timestep 0
unfix 1
velocity 3 zero linear
velocity 3 zero angular
fix 1 3 npt temp 300 $t 0.001 iso $p $p 0.01 fixedpoint 20.0 35.0 20.0
fix 1 3 npt temp 300 1500 0.001 iso $p $p 0.01 fixedpoint 20.0 35.0 20.0
fix 1 3 npt temp 300 1500 0.001 iso 5 $p 0.01 fixedpoint 20.0 35.0 20.0
fix 1 3 npt temp 300 1500 0.001 iso 5 5 0.01 fixedpoint 20.0 35.0 20.0
thermo_style custom step temp press c_ape_C c_ake_C c_ape_Si c_ake_Si
thermo 100
timestep 0.0001
run 5000
Loop time of 5.48503 on 4 procs for 5000 steps with 1163 atoms

reset_timestep 0
unfix 1
velocity 3 zero linear
velocity 3 zero angular
velocity 3 create $t 12025
velocity 3 create 1500 12025
velocity 3 scale $t
velocity 3 scale 1500
fix 1 3 npt temp $t $t 0.001 iso $p $p 0.01 fixedpoint 20.0 35.0 20.0
fix 1 3 npt temp 1500 $t 0.001 iso $p $p 0.01 fixedpoint 20.0 35.0 20.0
fix 1 3 npt temp 1500 1500 0.001 iso $p $p 0.01 fixedpoint 20.0 35.0 20.0
fix 1 3 npt temp 1500 1500 0.001 iso 5 $p 0.01 fixedpoint 20.0 35.0 20.0
fix 1 3 npt temp 1500 1500 0.001 iso 5 5 0.01 fixedpoint 20.0 35.0 20.0
thermo_style custom step temp press c_ape_C c_ake_C c_ape_Si c_ake_Si
thermo 100
timestep 0.0001
run 50000
Loop time of 96.8465 on 4 procs for 50000 steps with 1163 atoms

reset_timestep 0
unfix 1
velocity 3 zero linear
velocity 3 zero angular
fix 1 3 nvt temp $t 300 0.001 fixedpoint 20.0 35.0 20.0
fix 1 3 nvt temp 1500 300 0.001 fixedpoint 20.0 35.0 20.0
thermo_style custom step temp press c_ape_C c_ake_C c_ape_Si c_ake_Si
thermo 100
timestep 0.0001
run 5000
Loop time of 10.0336 on 4 procs for 5000 steps with 1163 atoms

write_data SiC.data1_1500_5_dt:0.0001
System init for write_data ...
clear
next p
jump SELF loop2
next t
jump SELF loop1
print "Done!!!"
Done!!!
