LAMMPS (29 Sep 2021 - Update 2)
variable dt equal 0.0001
variable t index 900 1000 1500
label loop1
units metal
boundary m m m
atom_style atomic
lattice custom 6.711 a1 0.3671583967 0 0 a2 0.1835791983 0.3179684987 0 a3 0 0 1 basis 0.1 0.1 0.05 basis 0.433 0.433 0.55
Lattice spacing in x,y,z = 3.6960000 2.1338866 6.7110000
region 1 block 0.0 40.0 0.0 40.0 0.0 20.0 units lattice
region 2 block 10.0 20.0 10.0 30.0 9.0 10.0 units lattice
region 3 block 20.0 30.0 10.0 30.0 9.0 10.0 units lattice
region 4 block 10.0 20.0 10.0 30.0 10.0 10.5 units lattice
region 5 block 20.0 30.0 10.0 30.0 10.0 10.5 units lattice
create_box 2 1
Created orthogonal box = (0.0000000 0.0000000 0.0000000) to (147.84000 85.355464 134.22000)
create_atoms 1 region 4
Created 300 atoms
lattice custom 6.711 a1 0.3671583967 0 0 a2 0.1835791983 0.3179684987 0 a3 0 0 1 basis 0.2667 0.2667 0.25 basis 0.6 0.6 0.75
Lattice spacing in x,y,z = 3.6960000 2.1338866 6.7110000
create_atoms 1 region 5
Created 300 atoms
mass 1 12.0107
lattice custom 5.4309 a1 1 0 0 a2 0 1 0 a3 0 0 1 basis 0.15 0.15 0.15 basis 0.65 0.65 0.15 basis 0.65 0.15 0.65 basis 0.15 0.65 0.65
Lattice spacing in x,y,z = 5.4309000 5.4309000 5.4309000
create_atoms 2 region 2
Created 312 atoms
lattice custom 5.4309 a1 1 0 0 a2 0 1 0 a3 0 0 1 basis 0.65 0.35 0.35 basis 0.65 0.85 0.85 basis 0.15 0.85 0.35 basis 0.15 0.85 0.0.85
Lattice spacing in x,y,z = 5.4309000 5.4309000 5.4309000
create_atoms 2 region 3
Created 308 atoms
mass 2 28.0855
group 1 type 1
600 atoms in group 1
group 2 type 2
620 atoms in group 2
group 3 type 1
600 atoms in group 3
group 3 type 2
1220 atoms in group 3
pair_style kim Tersoff_LAMMPS_ErhartAlbe_2005SiII_SiC__MO_408791041969_003
pair_coeff * * C Si
neighbor 2.5 bin
neigh_modify every 1 delay 100
dump 1 all atom 100 dump.SiC_900_dt:0.0001
compute 1 1 pe/atom
compute 2 1 ke/atom
compute 3 2 pe/atom
compute 4 2 ke/atom
compute ape_C 1 reduce ave c_1
compute ake_C 1 reduce ave c_2
compute ape_Si 2 reduce ave c_3
compute ake_Si 2 reduce ave c_4
velocity 3 zero linear
velocity 3 zero angular
fix 1 3 nvt temp 0.001 10 0.001
thermo_style custom step temp press c_ape_C c_ake_C c_ape_Si c_ake_Si
thermo 100
timestep 0.0001
run 1000

CITE-CITE-CITE-CITE-CITE-CITE-CITE-CITE-CITE-CITE-CITE-CITE-CITE

Your simulation uses code contributions which should be cited:

- OpenKIM: https://doi.org/10.1007/s11837-011-0102-6

@Article{tadmor:elliott:2011,
 author = {E. B. Tadmor and R. S. Elliott and J. P. Sethna and R. E. Miller and C. A. Becker},
 title = {The potential of atomistic simulations and the {K}nowledgebase of {I}nteratomic {M}odels},
 journal = {{JOM}},
 year =    2011,
 volume =  63,
 number =  17,
 pages =   {17},
 doi =     {10.1007/s11837-011-0102-6}
}

- OpenKIM potential: https://openkim.org/cite/MO_408791041969_003#item-citation

@Comment
{
\documentclass{article}
\usepackage{url}
\begin{document}
This Model originally published in \cite{MO_408791041969_003a} is archived in OpenKIM~\cite{MO_408791041969_003, MD_077075034781_004, tadmor:elliott:2011, elliott:tadmor:2011}.
\bibliographystyle{vancouver}
\bibliography{kimcite-MO_408791041969_003.bib}
\end{document}
}

@Misc{MO_408791041969_003,
  author       = {Karsten Albe and Paul Erhart and Tobias Brink},
  title        = {{T}ersoff-style three-body potential for {S}i{C} (with {S}i{II} parameter set) developed by {E}rhart and {A}lbe (2005) v003},
  doi          = {10.25950/4ecba3f8},
  howpublished = {OpenKIM, \url{https://doi.org/10.25950/4ecba3f8}},
  keywords     = {OpenKIM, Model, MO_408791041969_003},
  publisher    = {OpenKIM},
  year         = 2021,
}

@Misc{MD_077075034781_004,
  author       = {U. Littmark and Jochen P. Biersack and James F. Ziegler and Kai Nordlund and Paul Erhart and Karsten Albe and J. Nord and Jerry Tersoff and Tobias Brink and Aidan P. Thompson and David E. Farrell and Mingjian Wen},
  title        = {{M}odel driver for {T}ersoff-style potentials ported from {LAMMPS} v004},
  doi          = {10.25950/57484673},
  howpublished = {OpenKIM, \url{https://doi.org/10.25950/4ecba3f8}},
  keywords     = {OpenKIM, Model Driver, MD_077075034781_004},
  publisher    = {OpenKIM},
  year         = 2021,
}

@Article{tadmor:elliott:2011,
  author    = {E. B. Tadmor and R. S. Elliott and J. P. Sethna and R. E. Miller and C. A. Becker},
  title     = {The potential of atomistic simulations and the {K}nowledgebase of {I}nteratomic {M}odels},
  journal   = {{JOM}},
  year      = {2011},
  volume    = {63},
  number    = {7},
  pages     = {17},
  doi       = {10.1007/s11837-011-0102-6},
}

@Misc{elliott:tadmor:2011,
  author       = {Ryan S. Elliott and Ellad B. Tadmor},
  title        = {{K}nowledgebase of {I}nteratomic {M}odels ({KIM}) Application Programming Interface ({API})},
  howpublished = {\url{https://openkim.org/kim-api}},
  publisher    = {OpenKIM},
  year         = 2011,
  doi          = {10.25950/ff8f563a},
}

@Article{MO_408791041969_003a,
  author = {Erhart, Paul and Albe, Karsten},
  doi = {10.1103/PhysRevB.71.035211},
  issue = {3},
  journal = {Physical Review B},
  month = {Jan},
  numpages = {14},
  pages = {035211},
  publisher = {American Physical Society},
  title = {Analytical potential for atomistic simulations of silicon, carbon, and silicon carbide},
  volume = {71},
  year = {2005},
}
CITE-CITE-CITE-CITE-CITE-CITE-CITE-CITE-CITE-CITE-CITE-CITE-CITE

  update every 1 steps, delay 100 steps, check yes
Step Temp Press c_ape_C c_ake_C c_ape_Si c_ake_Si
0            0   -592.44691  -0.87425466            0   -1.1671734            0
Averages over the last 6 of 11 rows, steps 500 to 1000:
Temp Press c_ape_C c_ake_C c_ape_Si c_ake_Si
7.16173 -676.713 -1.04061 0.000888355 -1.42452 0.000960398
Loop time of 0.673061 on 4 procs for 1000 steps with 1220 atoms

reset_timestep 0
unfix 1
velocity 3 zero linear
velocity 3 zero angular
velocity 3 create 300 125210
velocity 3 scale 300
fix 1 3 nvt temp 10 300 0.001
thermo_style custom step temp press c_ape_C c_ake_C c_ape_Si c_ake_Si
thermo 100
timestep 0.0001
run 20000
  update every 1 steps, delay 100 steps, check yes
Step Temp Press c_ape_C c_ake_C c_ape_Si c_ake_Si
0          300   -570.80905   -1.1086515  0.038845555   -1.5278873  0.038650164
Averages over the last 101 of 201 rows, steps 10000 to 20000:
Temp Press c_ape_C c_ake_C c_ape_Si c_ake_Si
228.574 -28.5582 -4.31019 0.032206 -2.6078 0.0269232
Loop time of 28.2719 on 4 procs for 20000 steps with 1220 atoms

reset_timestep 0
unfix 1
velocity 3 zero linear
velocity 3 zero angular
velocity 3 create $t 12025
velocity 3 create 900 12025
velocity 3 scale $t
velocity 3 scale 900
fix 1 3 nvt temp $t $t 0.001
fix 1 3 nvt temp 900 $t 0.001
fix 1 3 nvt temp 900 900 0.001
thermo_style custom step temp press c_ape_C c_ake_C c_ape_Si c_ake_Si
thermo 100
timestep 0.0001
run 50000
  update every 1 steps, delay 100 steps, check yes
Step Temp Press c_ape_C c_ake_C c_ape_Si c_ake_Si
0          900    58.264887   -4.5187211   0.11925098   -2.7839706   0.11332374
Averages over the last 251 of 501 rows, steps 25000 to 50000:
Temp Press c_ape_C c_ake_C c_ape_Si c_ake_Si
900.3 0.749934 -5.23187 0.115553 -4.20395 0.116979
Loop time of 109.391 on 4 procs for 50000 steps with 1220 atoms

reset_timestep 0
unfix 1
velocity 3 zero linear
velocity 3 zero angular
fix 1 3 nvt temp $t 300 0.001
fix 1 3 nvt temp 900 300 0.001
thermo_style custom step temp press c_ape_C c_ake_C c_ape_Si c_ake_Si
thermo 100
timestep 0.0001
run 5000
  update every 1 steps, delay 100 steps, check yes
Step Temp Press c_ape_C c_ake_C c_ape_Si c_ake_Si
0    884.28027     6.939661   -5.3170312   0.11124308   -4.2821835   0.11707827
Averages over the last 26 of 51 rows, steps 2500 to 5000:
Temp Press c_ape_C c_ake_C c_ape_Si c_ake_Si
449.25 -10.9487 -5.3852 0.0601773 -4.35158 0.0559372
Loop time of 12.4444 on 4 procs for 5000 steps with 1220 atoms

write_data SiC.data1_900_dt:0.0001
System init for write_data ...
  update every 1 steps, delay 100 steps, check yes
clear
next t
jump SELF loop1
units metal
boundary m m m
atom_style atomic
lattice custom 6.711 a1 0.3671583967 0 0 a2 0.1835791983 0.3179684987 0 a3 0 0 1 basis 0.1 0.1 0.05 basis 0.433 0.433 0.55
Lattice spacing in x,y,z = 3.6960000 2.1338866 6.7110000
region 1 block 0.0 40.0 0.0 40.0 0.0 20.0 units lattice
region 2 block 10.0 20.0 10.0 30.0 9.0 10.0 units lattice
region 3 block 20.0 30.0 10.0 30.0 9.0 10.0 units lattice
region 4 block 10.0 20.0 10.0 30.0 10.0 10.5 units lattice
region 5 block 20.0 30.0 10.0 30.0 10.0 10.5 units lattice
create_box 2 1
Created orthogonal box = (0.0000000 0.0000000 0.0000000) to (147.84000 85.355464 134.22000)
create_atoms 1 region 4
Created 300 atoms
lattice custom 6.711 a1 0.3671583967 0 0 a2 0.1835791983 0.3179684987 0 a3 0 0 1 basis 0.2667 0.2667 0.25 basis 0.6 0.6 0.75
Lattice spacing in x,y,z = 3.6960000 2.1338866 6.7110000
create_atoms 1 region 5
Created 300 atoms
mass 1 12.0107
lattice custom 5.4309 a1 1 0 0 a2 0 1 0 a3 0 0 1 basis 0.15 0.15 0.15 basis 0.65 0.65 0.15 basis 0.65 0.15 0.65 basis 0.15 0.65 0.65
Lattice spacing in x,y,z = 5.4309000 5.4309000 5.4309000
create_atoms 2 region 2
Created 312 atoms
lattice custom 5.4309 a1 1 0 0 a2 0 1 0 a3 0 0 1 basis 0.65 0.35 0.35 basis 0.65 0.85 0.85 basis 0.15 0.85 0.35 basis 0.15 0.85 0.0.85
Lattice spacing in x,y,z = 5.4309000 5.4309000 5.4309000
create_atoms 2 region 3
Created 308 atoms
mass 2 28.0855
group 1 type 1
600 atoms in group 1
group 2 type 2
620 atoms in group 2
group 3 type 1
600 atoms in group 3
group 3 type 2
1220 atoms in group 3
pair_style kim Tersoff_LAMMPS_ErhartAlbe_2005SiII_SiC__MO_408791041969_003
pair_coeff * * C Si
neighbor 2.5 bin
neigh_modify every 1 delay 100
dump 1 all atom 100 dump.SiC_1000_dt:0.0001
compute 1 1 pe/atom
compute 2 1 ke/atom
compute 3 2 pe/atom
compute 4 2 ke/atom
compute ape_C 1 reduce ave c_1
compute ake_C 1 reduce ave c_2
compute ape_Si 2 reduce ave c_3
compute ake_Si 2 reduce ave c_4
velocity 3 zero linear
velocity 3 zero angular
fix 1 3 nvt temp 0.001 10 0.001
thermo_style custom step temp press c_ape_C c_ake_C c_ape_Si c_ake_Si
thermo 100
timestep 0.0001
run 1000
  update every 1 steps, delay 100 steps, check yes
Step Temp Press c_ape_C c_ake_C c_ape_Si c_ake_Si
0            0   -592.44691  -0.87425466            0   -1.1671734            0
Averages over the last 6 of 11 rows, steps 500 to 1000:
Temp Press c_ape_C c_ake_C c_ape_Si c_ake_Si
7.16173 -676.713 -1.04061 0.000888355 -1.42452 0.000960398
Loop time of 0.649895 on 4 procs for 1000 steps with 1220 atoms

reset_timestep 0
unfix 1
velocity 3 zero linear
velocity 3 zero angular
velocity 3 create 300 125210
velocity 3 scale 300
fix 1 3 nvt temp 10 300 0.001
thermo_style custom step temp press c_ape_C c_ake_C c_ape_Si c_ake_Si
thermo 100
timestep 0.0001
run 20000
  update every 1 steps, delay 100 steps, check yes
Step Temp Press c_ape_C c_ake_C c_ape_Si c_ake_Si
0          300   -570.80905   -1.1086515  0.038845555   -1.5278873  0.038650164
Averages over the last 101 of 201 rows, steps 10000 to 20000:
Temp Press c_ape_C c_ake_C c_ape_Si c_ake_Si
228.574 -28.5582 -4.31019 0.032206 -2.6078 0.0269232
Loop time of 17.7 on 4 procs for 20000 steps with 1220 atoms

reset_timestep 0
unfix 1
velocity 3 zero linear
velocity 3 zero angular
velocity 3 create $t 12025
velocity 3 create 1000 12025
velocity 3 scale $t
velocity 3 scale 1000
fix 1 3 nvt temp $t $t 0.001
fix 1 3 nvt temp 1000 $t 0.001
fix 1 3 nvt temp 1000 1000 0.001
thermo_style custom step temp press c_ape_C c_ake_C c_ape_Si c_ake_Si
thermo 100
timestep 0.0001
run 50000
  update every 1 steps, delay 100 steps, check yes
Step Temp Press c_ape_C c_ake_C c_ape_Si c_ake_Si
0         1000    68.201696   -4.5187211   0.13250109   -2.7839706   0.12591527
Averages over the last 251 of 501 rows, steps 25000 to 50000:
Temp Press c_ape_C c_ake_C c_ape_Si c_ake_Si
999.77 0.438493 -5.28048 0.128582 -4.19128 0.12965
Loop time of 104.513 on 4 procs for 50000 steps with 1220 atoms

reset_timestep 0
unfix 1
velocity 3 zero linear
velocity 3 zero angular
fix 1 3 nvt temp $t 300 0.001
fix 1 3 nvt temp 1000 300 0.001
thermo_style custom step temp press c_ape_C c_ake_C c_ape_Si c_ake_Si
thermo 100
timestep 0.0001
run 5000
  update every 1 steps, delay 100 steps, check yes
Step Temp Press c_ape_C c_ake_C c_ape_Si c_ake_Si
0    1017.3888    35.514141   -5.3442646   0.12782742    -4.246912   0.13485738
Averages over the last 26 of 51 rows, steps 2500 to 5000:
Temp Press c_ape_C c_ake_C c_ape_Si c_ake_Si
476.467 -9.37901 -5.42529 0.062335 -4.33111 0.0607661
Loop time of 12.085 on 4 procs for 5000 steps with 1220 atoms

write_data SiC.data1_1000_dt:0.0001
System init for write_data ...
  update every 1 steps, delay 100 steps, check yes
clear
next t
jump SELF loop1
units metal
boundary m m m
atom_style atomic
lattice custom 6.711 a1 0.3671583967 0 0 a2 0.1835791983 0.3179684987 0 a3 0 0 1 basis 0.1 0.1 0.05 basis 0.433 0.433 0.55
Lattice spacing in x,y,z = 3.6960000 2.1338866 6.7110000
region 1 block 0.0 40.0 0.0 40.0 0.0 20.0 units lattice
region 2 block 10.0 20.0 10.0 30.0 9.0 10.0 units lattice
region 3 block 20.0 30.0 10.0 30.0 9.0 10.0 units lattice
region 4 block 10.0 20.0 10.0 30.0 10.0 10.5 units lattice
region 5 block 20.0 30.0 10.0 30.0 10.0 10.5 units lattice
create_box 2 1
Created orthogonal box = (0.0000000 0.0000000 0.0000000) to (147.84000 85.355464 134.22000)
create_atoms 1 region 4
Created 300 atoms
lattice custom 6.711 a1 0.3671583967 0 0 a2 0.1835791983 0.3179684987 0 a3 0 0 1 basis 0.2667 0.2667 0.25 basis 0.6 0.6 0.75
Lattice spacing in x,y,z = 3.6960000 2.1338866 6.7110000
create_atoms 1 region 5
Created 300 atoms
mass 1 12.0107
lattice custom 5.4309 a1 1 0 0 a2 0 1 0 a3 0 0 1 basis 0.15 0.15 0.15 basis 0.65 0.65 0.15 basis 0.65 0.15 0.65 basis 0.15 0.65 0.65
Lattice spacing in x,y,z = 5.4309000 5.4309000 5.4309000
create_atoms 2 region 2
Created 312 atoms
lattice custom 5.4309 a1 1 0 0 a2 0 1 0 a3 0 0 1 basis 0.65 0.35 0.35 basis 0.65 0.85 0.85 basis 0.15 0.85 0.35 basis 0.15 0.85 0.0.85
Lattice spacing in x,y,z = 5.4309000 5.4309000 5.4309000
create_atoms 2 region 3
Created 308 atoms
mass 2 28.0855
group 1 type 1
600 atoms in group 1
group 2 type 2
620 atoms in group 2
group 3 type 1
600 atoms in group 3
group 3 type 2
1220 atoms in group 3
pair_style kim Tersoff_LAMMPS_ErhartAlbe_2005SiII_SiC__MO_408791041969_003
pair_coeff * * C Si
neighbor 2.5 bin
neigh_modify every 1 delay 100
dump 1 all atom 100 dump.SiC_1500_dt:0.0001
compute 1 1 pe/atom
compute 2 1 ke/atom
compute 3 2 pe/atom
compute 4 2 ke/atom
compute ape_C 1 reduce ave c_1
compute ake_C 1 reduce ave c_2
compute ape_Si 2 reduce ave c_3
compute ake_Si 2 reduce ave c_4
velocity 3 zero linear
velocity 3 zero angular
fix 1 3 nvt temp 0.001 10 0.001
thermo_style custom step temp press c_ape_C c_ake_C c_ape_Si c_ake_Si
thermo 100
timestep 0.0001
run 1000
  update every 1 steps, delay 100 steps, check yes
Step Temp Press c_ape_C c_ake_C c_ape_Si c_ake_Si
0            0   -592.44691  -0.87425466            0   -1.1671734            0
Averages over the last 6 of 11 rows, steps 500 to 1000:
Temp Press c_ape_C c_ake_C c_ape_Si c_ake_Si
7.16173 -676.713 -1.04061 0.000888355 -1.42452 0.000960398
Loop time of 1.03134 on 4 procs for 1000 steps with 1220 atoms

reset_timestep 0
unfix 1
velocity 3 zero linear
velocity 3 zero angular
velocity 3 create 300 125210
velocity 3 scale 300
fix 1 3 nvt temp 10 300 0.001
thermo_style custom step temp press c_ape_C c_ake_C c_ape_Si c_ake_Si
thermo 100
timestep 0.0001
run 20000
  update every 1 steps, delay 100 steps, check yes
Step Temp Press c_ape_C c_ake_C c_ape_Si c_ake_Si
0          300   -570.80905   -1.1086515  0.038845555   -1.5278873  0.038650164
Averages over the last 101 of 201 rows, steps 10000 to 20000:
Temp Press c_ape_C c_ake_C c_ape_Si c_ake_Si
228.574 -28.5582 -4.31019 0.032206 -2.6078 0.0269232
Loop time of 21.6111 on 4 procs for 20000 steps with 1220 atoms

reset_timestep 0
unfix 1
velocity 3 zero linear
velocity 3 zero angular
velocity 3 create $t 12025
velocity 3 create 1500 12025
velocity 3 scale $t
velocity 3 scale 1500
fix 1 3 nvt temp $t $t 0.001
fix 1 3 nvt temp 1500 $t 0.001
fix 1 3 nvt temp 1500 1500 0.001
thermo_style custom step temp press c_ape_C c_ake_C c_ape_Si c_ake_Si
thermo 100
timestep 0.0001
run 50000
  update every 1 steps, delay 100 steps, check yes
Step Temp Press c_ape_C c_ake_C c_ape_Si c_ake_Si
0         1500    117.88574   -4.5187211   0.19875163   -2.7839706    0.1888729
Averages over the last 251 of 501 rows, steps 25000 to 50000:
Temp Press c_ape_C c_ake_C c_ape_Si c_ake_Si
1497.93 5.11554 -5.36924 0.198959 -4.1127 0.188146
Loop time of 113.71 on 4 procs for 50000 steps with 1220 atoms

reset_timestep 0
unfix 1
velocity 3 zero linear
velocity 3 zero angular
fix 1 3 nvt temp $t 300 0.001
fix 1 3 nvt temp 1500 300 0.001
thermo_style custom step temp press c_ape_C c_ake_C c_ape_Si c_ake_Si
thermo 100
timestep 0.0001
run 5000
  update every 1 steps, delay 100 steps, check yes
Step Temp Press c_ape_C c_ake_C c_ape_Si c_ake_Si
0    1450.7178   -6.4265464   -5.4586393   0.20099914   -4.1596729    0.1741732
Averages over the last 26 of 51 rows, steps 2500 to 5000:
Temp Press c_ape_C c_ake_C c_ape_Si c_ake_Si
601.326 -8.7242 -5.58675 0.0783205 -4.29593 0.0770281
Loop time of 12.4325 on 4 procs for 5000 steps with 1220 atoms

write_data SiC.data1_1500_dt:0.0001
System init for write_data ...
  update every 1 steps, delay 100 steps, check yes
clear
next t
jump SELF loop1
print "Done!!!"
Done!!!
