LAMMPS (29 Sep 2021 - Update 2)
variable dt equal 0.0001
variable t index 900 1000
label loop1
variable p index 1 2
label loop2
units metal
boundary p p p
atom_style atomic
lattice custom 6.711 a1 0.3671583967 0 0 a2 0.1835791983 0.3179684987 0 a3 0 0 1 basis 0.1 0.1 0.05 basis 0.433 0.433 0.55
Lattice spacing in x,y,z = 3.6960000 2.1338866 6.7110000
region 1 block 0.0 40.0 0.0 40.0 0.0 20.0 units lattice
region 2 block 10.0 20.0 10.0 30.0 8.5 10.0 units lattice
region 3 block 20.0 30.0 10.0 30.0 8.3 9.0 units lattice
region 4 block 10.0 20.0 10.0 30.0 10.0 10.5 units lattice
region 5 block 20.0 30.0 10.0 30.0 9.0 9.5 units lattice
create_box 2 1
Created orthogonal box = (0.0000000 0.0000000 0.0000000) to (147.84000 85.355464 134.22000)
create_atoms 1 region 4
Created 300 atoms
lattice custom 6.711 a1 0.3671583967 0 0 a2 0.1835791983 0.3179684987 0 a3 0 0 1 basis 0.2667 0.2667 0.25 basis 0.6 0.6 0.75
Lattice spacing in x,y,z = 3.6960000 2.1338866 6.7110000
create_atoms 1 region 5
Created 300 atoms
mass 1 12.0107
lattice custom 5.4309 a1 1 0 0 a2 0 1 0 a3 0 0 1 basis 0.15 0.15 0.15 basis 0.65 0.65 0.15 basis 0.65 0.15 0.65 basis 0.15 0.65 0.65
Lattice spacing in x,y,z = 5.4309000 5.4309000 5.4309000
create_atoms 2 region 2
Created 416 atoms
lattice custom 5.4309 a1 1 0 0 a2 0 1 0 a3 0 0 1 basis 0.65 0.35 0.35 basis 0.65 0.85 0.85 basis 0.15 0.85 0.35 basis 0.15 0.85 0.0.85
Lattice spacing in x,y,z = 5.4309000 5.4309000 5.4309000
create_atoms 2 region 3
Created 203 atoms
mass 2 28.0855
group 1 type 1
600 atoms in group 1
group 2 type 2
619 atoms in group 2
group 3 type 1
600 atoms in group 3
group 3 type 2
1219 atoms in group 3
pair_style kim Tersoff_LAMMPS_ErhartAlbe_2005SiII_SiC__MO_408791041969_003
pair_coeff * * C Si
neighbor 2.5 bin
neigh_modify every 1 delay 100
dump 1 all atom 100 dump.SiC_900_1_dt:0.0001
compute 1 1 pe/atom
compute 2 1 ke/atom
compute 3 2 pe/atom
compute 4 2 ke/atom
compute 5 3 pe/atom
compute 6 3 ke/atom
compute ape_C 1 reduce ave c_1
compute ake_C 1 reduce ave c_2
compute ape_Si 2 reduce ave c_3
compute ake_Si 2 reduce ave c_4
compute ape_CSi 3 reduce ave c_5
compute ake_CSi 3 reduce ave c_6
velocity 3 zero linear
velocity 3 zero angular
fix 1 3 nvt temp 0.001 10.0 0.001 fixedpoint 20.0 35.0 20.0
thermo_style custom step temp press c_ape_C c_ake_C c_ape_Si c_ake_Si
thermo 100
timestep 0.0001
run 5000

CITE-CITE-CITE-CITE-CITE-CITE-CITE-CITE-CITE-CITE-CITE-CITE-CITE

Your simulation uses code contributions which should be cited:

- OpenKIM: https://doi.org/10.1007/s11837-011-0102-6

@Article{tadmor:elliott:2011,
 author = {E. B. Tadmor and R. S. Elliott and J. P. Sethna and R. E. Miller and C. A. Becker},
 title = {The potential of atomistic simulations and the {K}nowledgebase of {I}nteratomic {M}odels},
 journal = {{JOM}},
 year =    2011,
 volume =  63,
 number =  17,
 pages =   {17},
 doi =     {10.1007/s11837-011-0102-6}
}

- OpenKIM potential: https://openkim.org/cite/MO_408791041969_003#item-citation

@Comment
{
\documentclass{article}
\usepackage{url}
\begin{document}
This Model originally published in \cite{MO_408791041969_003a} is archived in OpenKIM~\cite{MO_408791041969_003, MD_077075034781_004, tadmor:elliott:2011, elliott:tadmor:2011}.
\bibliographystyle{vancouver}
\bibliography{kimcite-MO_408791041969_003.bib}
\end{document}
}

@Misc{MO_408791041969_003,
  author       = {Karsten Albe and Paul Erhart and Tobias Brink},
  title        = {{T}ersoff-style three-body potential for {S}i{C} (with {S}i{II} parameter set) developed by {E}rhart and {A}lbe (2005) v003},
  doi          = {10.25950/4ecba3f8},
  howpublished = {OpenKIM, \url{https://doi.org/10.25950/4ecba3f8}},
  keywords     = {OpenKIM, Model, MO_408791041969_003},
  publisher    = {OpenKIM},
  year         = 2021,
}

@Misc{MD_077075034781_004,
  author       = {U. Littmark and Jochen P. Biersack and James F. Ziegler and Kai Nordlund and Paul Erhart and Karsten Albe and J. Nord and Jerry Tersoff and Tobias Brink and Aidan P. Thompson and David E. Farrell and Mingjian Wen},
  title        = {{M}odel driver for {T}ersoff-style potentials ported from {LAMMPS} v004},
  doi          = {10.25950/57484673},
  howpublished = {OpenKIM, \url{https://doi.org/10.25950/4ecba3f8}},
  keywords     = {OpenKIM, Model Driver, MD_077075034781_004},
  publisher    = {OpenKIM},
  year         = 2021,
}

@Article{tadmor:elliott:2011,
  author    = {E. B. Tadmor and R. S. Elliott and J. P. Sethna and R. E. Miller and C. A. Becker},
  title     = {The potential of atomistic simulations and the {K}nowledgebase of {I}nteratomic {M}odels},
  journal   = {{JOM}},
  year      = {2011},
  volume    = {63},
  number    = {7},
  pages     = {17},
  doi       = {10.1007/s11837-011-0102-6},
}

@Misc{elliott:tadmor:2011,
  author       = {Ryan S. Elliott and Ellad B. Tadmor},
  title        = {{K}nowledgebase of {I}nteratomic {M}odels ({KIM}) Application Programming Interface ({API})},
  howpublished = {\url{https://openkim.org/kim-api}},
  publisher    = {OpenKIM},
  year         = 2011,
  doi          = {10.25950/ff8f563a},
}

@Article{MO_408791041969_003a,
  author = {Erhart, Paul and Albe, Karsten},
  doi = {10.1103/PhysRevB.71.035211},
  issue = {3},
  journal = {Physical Review B},
  month = {Jan},
  numpages = {14},
  pages = {035211},
  publisher = {American Physical Society},
  title = {Analytical potential for atomistic simulations of silicon, carbon, and silicon carbide},
  volume = {71},
  year = {2005},
}
CITE-CITE-CITE-CITE-CITE-CITE-CITE-CITE-CITE-CITE-CITE-CITE-CITE

  update every 1 steps, delay 100 steps, check yes
Step Temp Press c_ape_C c_ake_C c_ape_Si c_ake_Si
0            0   -870.81698  -0.49905691            0  -0.70223477            0
Averages over the last 26 of 51 rows, steps 2500 to 5000:
Temp Press c_ape_C c_ake_C c_ape_Si c_ake_Si
7.44096 -232.357 -1.10268 0.00155642 -1.09455 0.000383916
Loop time of 2.86505 on 4 procs for 5000 steps with 1219 atoms

reset_timestep 0
unfix 1
velocity 3 zero linear
velocity 3 zero angular
velocity 3 create $t 12025
velocity 3 create 900 12025
velocity 3 scale $t
velocity 3 scale 900
fix 1 3 npt temp $t $t 0.001 iso $p $p 0.01 fixedpoint 20.0 35.0 20.0
fix 1 3 npt temp 900 $t 0.001 iso $p $p 0.01 fixedpoint 20.0 35.0 20.0
fix 1 3 npt temp 900 900 0.001 iso $p $p 0.01 fixedpoint 20.0 35.0 20.0
fix 1 3 npt temp 900 900 0.001 iso 1 $p 0.01 fixedpoint 20.0 35.0 20.0
fix 1 3 npt temp 900 900 0.001 iso 1 1 0.01 fixedpoint 20.0 35.0 20.0
thermo_style custom step temp press c_ape_C c_ake_C c_ape_Si c_ake_Si c_ape_CSi c_ake_CSi
thermo 100
timestep 0.0001
run 30000
  update every 1 steps, delay 100 steps, check yes
Step Temp Press c_ape_C c_ake_C c_ape_Si c_ake_Si c_ape_CSi c_ake_CSi
0          900    6.7733369   -1.4423916   0.11932493   -1.1744637   0.11324719   -1.3063396    0.1162387
Averages over the last 151 of 301 rows, steps 15000 to 30000:
Temp Press c_ape_C c_ake_C c_ape_Si c_ake_Si c_ape_CSi c_ake_CSi
901.726 0.950402 -5.4748 0.115655 -4.0756 0.117244 -4.7643 0.116462
Loop time of 61.0275 on 4 procs for 30000 steps with 1219 atoms

write_data SiC.data1_900_1_dt:0.0001
System init for write_data ...
  update every 1 steps, delay 100 steps, check yes
clear
next p
jump SELF loop2
units metal
boundary p p p
atom_style atomic
lattice custom 6.711 a1 0.3671583967 0 0 a2 0.1835791983 0.3179684987 0 a3 0 0 1 basis 0.1 0.1 0.05 basis 0.433 0.433 0.55
Lattice spacing in x,y,z = 3.6960000 2.1338866 6.7110000
region 1 block 0.0 40.0 0.0 40.0 0.0 20.0 units lattice
region 2 block 10.0 20.0 10.0 30.0 8.5 10.0 units lattice
region 3 block 20.0 30.0 10.0 30.0 8.3 9.0 units lattice
region 4 block 10.0 20.0 10.0 30.0 10.0 10.5 units lattice
region 5 block 20.0 30.0 10.0 30.0 9.0 9.5 units lattice
create_box 2 1
Created orthogonal box = (0.0000000 0.0000000 0.0000000) to (147.84000 85.355464 134.22000)
create_atoms 1 region 4
Created 300 atoms
lattice custom 6.711 a1 0.3671583967 0 0 a2 0.1835791983 0.3179684987 0 a3 0 0 1 basis 0.2667 0.2667 0.25 basis 0.6 0.6 0.75
Lattice spacing in x,y,z = 3.6960000 2.1338866 6.7110000
create_atoms 1 region 5
Created 300 atoms
mass 1 12.0107
lattice custom 5.4309 a1 1 0 0 a2 0 1 0 a3 0 0 1 basis 0.15 0.15 0.15 basis 0.65 0.65 0.15 basis 0.65 0.15 0.65 basis 0.15 0.65 0.65
Lattice spacing in x,y,z = 5.4309000 5.4309000 5.4309000
create_atoms 2 region 2
Created 416 atoms
lattice custom 5.4309 a1 1 0 0 a2 0 1 0 a3 0 0 1 basis 0.65 0.35 0.35 basis 0.65 0.85 0.85 basis 0.15 0.85 0.35 basis 0.15 0.85 0.0.85
Lattice spacing in x,y,z = 5.4309000 5.4309000 5.4309000
create_atoms 2 region 3
Created 203 atoms
mass 2 28.0855
group 1 type 1
600 atoms in group 1
group 2 type 2
619 atoms in group 2
group 3 type 1
600 atoms in group 3
group 3 type 2
1219 atoms in group 3
pair_style kim Tersoff_LAMMPS_ErhartAlbe_2005SiII_SiC__MO_408791041969_003
pair_coeff * * C Si
neighbor 2.5 bin
neigh_modify every 1 delay 100
dump 1 all atom 100 dump.SiC_900_2_dt:0.0001
compute 1 1 pe/atom
compute 2 1 ke/atom
compute 3 2 pe/atom
compute 4 2 ke/atom
compute 5 3 pe/atom
compute 6 3 ke/atom
compute ape_C 1 reduce ave c_1
compute ake_C 1 reduce ave c_2
compute ape_Si 2 reduce ave c_3
compute ake_Si 2 reduce ave c_4
compute ape_CSi 3 reduce ave c_5
compute ake_CSi 3 reduce ave c_6
velocity 3 zero linear
velocity 3 zero angular
fix 1 3 nvt temp 0.001 10.0 0.001 fixedpoint 20.0 35.0 20.0
thermo_style custom step temp press c_ape_C c_ake_C c_ape_Si c_ake_Si
thermo 100
timestep 0.0001
run 5000
  update every 1 steps, delay 100 steps, check yes
Step Temp Press c_ape_C c_ake_C c_ape_Si c_ake_Si
0            0   -870.81698  -0.49905691            0  -0.70223477            0
Averages over the last 26 of 51 rows, steps 2500 to 5000:
Temp Press c_ape_C c_ake_C c_ape_Si c_ake_Si
7.44096 -232.357 -1.10268 0.00155642 -1.09455 0.000383916
Loop time of 2.91486 on 4 procs for 5000 steps with 1219 atoms

reset_timestep 0
unfix 1
velocity 3 zero linear
velocity 3 zero angular
velocity 3 create $t 12025
velocity 3 create 900 12025
velocity 3 scale $t
velocity 3 scale 900
fix 1 3 npt temp $t $t 0.001 iso $p $p 0.01 fixedpoint 20.0 35.0 20.0
fix 1 3 npt temp 900 $t 0.001 iso $p $p 0.01 fixedpoint 20.0 35.0 20.0
fix 1 3 npt temp 900 900 0.001 iso $p $p 0.01 fixedpoint 20.0 35.0 20.0
fix 1 3 npt temp 900 900 0.001 iso 2 $p 0.01 fixedpoint 20.0 35.0 20.0
fix 1 3 npt temp 900 900 0.001 iso 2 2 0.01 fixedpoint 20.0 35.0 20.0
thermo_style custom step temp press c_ape_C c_ake_C c_ape_Si c_ake_Si c_ape_CSi c_ake_CSi
thermo 100
timestep 0.0001
run 30000
  update every 1 steps, delay 100 steps, check yes
Step Temp Press c_ape_C c_ake_C c_ape_Si c_ake_Si c_ape_CSi c_ake_CSi
0          900    6.7733369   -1.4423916   0.11932493   -1.1744637   0.11324719   -1.3063396    0.1162387
Averages over the last 151 of 301 rows, steps 15000 to 30000:
Temp Press c_ape_C c_ake_C c_ape_Si c_ake_Si c_ape_CSi c_ake_CSi
902.728 1.60927 -5.42249 0.120667 -4.07744 0.112641 -4.73948 0.116591
Loop time of 59.8502 on 4 procs for 30000 steps with 1219 atoms

write_data SiC.data1_900_2_dt:0.0001
System init for write_data ...
  update every 1 steps, delay 100 steps, check yes
clear
next p
jump SELF loop2
next t
jump SELF loop1
variable p index 1 2
label loop2
units metal
boundary p p p
atom_style atomic
lattice custom 6.711 a1 0.3671583967 0 0 a2 0.1835791983 0.3179684987 0 a3 0 0 1 basis 0.1 0.1 0.05 basis 0.433 0.433 0.55
Lattice spacing in x,y,z = 3.6960000 2.1338866 6.7110000
region 1 block 0.0 40.0 0.0 40.0 0.0 20.0 units lattice
region 2 block 10.0 20.0 10.0 30.0 8.5 10.0 units lattice
region 3 block 20.0 30.0 10.0 30.0 8.3 9.0 units lattice
region 4 block 10.0 20.0 10.0 30.0 10.0 10.5 units lattice
region 5 block 20.0 30.0 10.0 30.0 9.0 9.5 units lattice
create_box 2 1
Created orthogonal box = (0.0000000 0.0000000 0.0000000) to (147.84000 85.355464 134.22000)
create_atoms 1 region 4
Created 300 atoms
lattice custom 6.711 a1 0.3671583967 0 0 a2 0.1835791983 0.3179684987 0 a3 0 0 1 basis 0.2667 0.2667 0.25 basis 0.6 0.6 0.75
Lattice spacing in x,y,z = 3.6960000 2.1338866 6.7110000
create_atoms 1 region 5
Created 300 atoms
mass 1 12.0107
lattice custom 5.4309 a1 1 0 0 a2 0 1 0 a3 0 0 1 basis 0.15 0.15 0.15 basis 0.65 0.65 0.15 basis 0.65 0.15 0.65 basis 0.15 0.65 0.65
Lattice spacing in x,y,z = 5.4309000 5.4309000 5.4309000
create_atoms 2 region 2
Created 416 atoms
lattice custom 5.4309 a1 1 0 0 a2 0 1 0 a3 0 0 1 basis 0.65 0.35 0.35 basis 0.65 0.85 0.85 basis 0.15 0.85 0.35 basis 0.15 0.85 0.0.85
Lattice spacing in x,y,z = 5.4309000 5.4309000 5.4309000
create_atoms 2 region 3
Created 203 atoms
mass 2 28.0855
group 1 type 1
600 atoms in group 1
group 2 type 2
619 atoms in group 2
group 3 type 1
600 atoms in group 3
group 3 type 2
1219 atoms in group 3
pair_style kim Tersoff_LAMMPS_ErhartAlbe_2005SiII_SiC__MO_408791041969_003
pair_coeff * * C Si
neighbor 2.5 bin
neigh_modify every 1 delay 100
dump 1 all atom 100 dump.SiC_1000_1_dt:0.0001
compute 1 1 pe/atom
compute 2 1 ke/atom
compute 3 2 pe/atom
compute 4 2 ke/atom
compute 5 3 pe/atom
compute 6 3 ke/atom
compute ape_C 1 reduce ave c_1
compute ake_C 1 reduce ave c_2
compute ape_Si 2 reduce ave c_3
compute ake_Si 2 reduce ave c_4
compute ape_CSi 3 reduce ave c_5
compute ake_CSi 3 reduce ave c_6
velocity 3 zero linear
velocity 3 zero angular
fix 1 3 nvt temp 0.001 10.0 0.001 fixedpoint 20.0 35.0 20.0
thermo_style custom step temp press c_ape_C c_ake_C c_ape_Si c_ake_Si
thermo 100
timestep 0.0001
run 5000
  update every 1 steps, delay 100 steps, check yes
Step Temp Press c_ape_C c_ake_C c_ape_Si c_ake_Si
0            0   -870.81698  -0.49905691            0  -0.70223477            0
Averages over the last 26 of 51 rows, steps 2500 to 5000:
Temp Press c_ape_C c_ake_C c_ape_Si c_ake_Si
7.44096 -232.357 -1.10268 0.00155642 -1.09455 0.000383916
Loop time of 2.29006 on 4 procs for 5000 steps with 1219 atoms

reset_timestep 0
unfix 1
velocity 3 zero linear
velocity 3 zero angular
velocity 3 create $t 12025
velocity 3 create 1000 12025
velocity 3 scale $t
velocity 3 scale 1000
fix 1 3 npt temp $t $t 0.001 iso $p $p 0.01 fixedpoint 20.0 35.0 20.0
fix 1 3 npt temp 1000 $t 0.001 iso $p $p 0.01 fixedpoint 20.0 35.0 20.0
fix 1 3 npt temp 1000 1000 0.001 iso $p $p 0.01 fixedpoint 20.0 35.0 20.0
fix 1 3 npt temp 1000 1000 0.001 iso 1 $p 0.01 fixedpoint 20.0 35.0 20.0
fix 1 3 npt temp 1000 1000 0.001 iso 1 1 0.01 fixedpoint 20.0 35.0 20.0
thermo_style custom step temp press c_ape_C c_ake_C c_ape_Si c_ake_Si c_ape_CSi c_ake_CSi
thermo 100
timestep 0.0001
run 30000
  update every 1 steps, delay 100 steps, check yes
Step Temp Press c_ape_C c_ake_C c_ape_Si c_ake_Si c_ape_CSi c_ake_CSi
0         1000    16.701994   -1.4423916   0.13258326   -1.1744637   0.12583021   -1.3063396   0.12915411
Averages over the last 151 of 301 rows, steps 15000 to 30000:
Temp Press c_ape_C c_ake_C c_ape_Si c_ake_Si c_ape_CSi c_ake_CSi
999.517 -1.09594 -5.47699 0.133007 -4.14794 0.125297 -4.8021 0.129092
Loop time of 67.3628 on 4 procs for 30000 steps with 1219 atoms

write_data SiC.data1_1000_1_dt:0.0001
System init for write_data ...
  update every 1 steps, delay 100 steps, check yes
clear
next p
jump SELF loop2
units metal
boundary p p p
atom_style atomic
lattice custom 6.711 a1 0.3671583967 0 0 a2 0.1835791983 0.3179684987 0 a3 0 0 1 basis 0.1 0.1 0.05 basis 0.433 0.433 0.55
Lattice spacing in x,y,z = 3.6960000 2.1338866 6.7110000
region 1 block 0.0 40.0 0.0 40.0 0.0 20.0 units lattice
region 2 block 10.0 20.0 10.0 30.0 8.5 10.0 units lattice
region 3 block 20.0 30.0 10.0 30.0 8.3 9.0 units lattice
region 4 block 10.0 20.0 10.0 30.0 10.0 10.5 units lattice
region 5 block 20.0 30.0 10.0 30.0 9.0 9.5 units lattice
create_box 2 1
Created orthogonal box = (0.0000000 0.0000000 0.0000000) to (147.84000 85.355464 134.22000)
create_atoms 1 region 4
Created 300 atoms
lattice custom 6.711 a1 0.3671583967 0 0 a2 0.1835791983 0.3179684987 0 a3 0 0 1 basis 0.2667 0.2667 0.25 basis 0.6 0.6 0.75
Lattice spacing in x,y,z = 3.6960000 2.1338866 6.7110000
create_atoms 1 region 5
Created 300 atoms
mass 1 12.0107
lattice custom 5.4309 a1 1 0 0 a2 0 1 0 a3 0 0 1 basis 0.15 0.15 0.15 basis 0.65 0.65 0.15 basis 0.65 0.15 0.65 basis 0.15 0.65 0.65
Lattice spacing in x,y,z = 5.4309000 5.4309000 5.4309000
create_atoms 2 region 2
Created 416 atoms
lattice custom 5.4309 a1 1 0 0 a2 0 1 0 a3 0 0 1 basis 0.65 0.35 0.35 basis 0.65 0.85 0.85 basis 0.15 0.85 0.35 basis 0.15 0.85 0.0.85
Lattice spacing in x,y,z = 5.4309000 5.4309000 5.4309000
create_atoms 2 region 3
Created 203 atoms
mass 2 28.0855
group 1 type 1
600 atoms in group 1
group 2 type 2
619 atoms in group 2
group 3 type 1
600 atoms in group 3
group 3 type 2
1219 atoms in group 3
pair_style kim Tersoff_LAMMPS_ErhartAlbe_2005SiII_SiC__MO_408791041969_003
pair_coeff * * C Si
neighbor 2.5 bin
neigh_modify every 1 delay 100
dump 1 all atom 100 dump.SiC_1000_2_dt:0.0001
compute 1 1 pe/atom
compute 2 1 ke/atom
compute 3 2 pe/atom
compute 4 2 ke/atom
compute 5 3 pe/atom
compute 6 3 ke/atom
compute ape_C 1 reduce ave c_1
compute ake_C 1 reduce ave c_2
compute ape_Si 2 reduce ave c_3
compute ake_Si 2 reduce ave c_4
compute ape_CSi 3 reduce ave c_5
compute ake_CSi 3 reduce ave c_6
velocity 3 zero linear
velocity 3 zero angular
fix 1 3 nvt temp 0.001 10.0 0.001 fixedpoint 20.0 35.0 20.0
thermo_style custom step temp press c_ape_C c_ake_C c_ape_Si c_ake_Si
thermo 100
timestep 0.0001
run 5000
  update every 1 steps, delay 100 steps, check yes
Step Temp Press c_ape_C c_ake_C c_ape_Si c_ake_Si
0            0   -870.81698  -0.49905691            0  -0.70223477            0
Averages over the last 26 of 51 rows, steps 2500 to 5000:
Temp Press c_ape_C c_ake_C c_ape_Si c_ake_Si
7.44096 -232.357 -1.10268 0.00155642 -1.09455 0.000383916
Loop time of 3.62025 on 4 procs for 5000 steps with 1219 atoms

reset_timestep 0
unfix 1
velocity 3 zero linear
velocity 3 zero angular
velocity 3 create $t 12025
velocity 3 create 1000 12025
velocity 3 scale $t
velocity 3 scale 1000
fix 1 3 npt temp $t $t 0.001 iso $p $p 0.01 fixedpoint 20.0 35.0 20.0
fix 1 3 npt temp 1000 $t 0.001 iso $p $p 0.01 fixedpoint 20.0 35.0 20.0
fix 1 3 npt temp 1000 1000 0.001 iso $p $p 0.01 fixedpoint 20.0 35.0 20.0
fix 1 3 npt temp 1000 1000 0.001 iso 2 $p 0.01 fixedpoint 20.0 35.0 20.0
fix 1 3 npt temp 1000 1000 0.001 iso 2 2 0.01 fixedpoint 20.0 35.0 20.0
thermo_style custom step temp press c_ape_C c_ake_C c_ape_Si c_ake_Si c_ape_CSi c_ake_CSi
thermo 100
timestep 0.0001
run 30000
  update every 1 steps, delay 100 steps, check yes
Step Temp Press c_ape_C c_ake_C c_ape_Si c_ake_Si c_ape_CSi c_ake_CSi
0         1000    16.701994   -1.4423916   0.13258326   -1.1744637   0.12583021   -1.3063396   0.12915411
Averages over the last 151 of 301 rows, steps 15000 to 30000:
Temp Press c_ape_C c_ake_C c_ape_Si c_ake_Si c_ape_CSi c_ake_CSi
1001.52 2.30393 -5.52517 0.130006 -4.12076 0.128714 -4.81202 0.12935
Loop time of 91.0935 on 4 procs for 30000 steps with 1219 atoms

write_data SiC.data1_1000_2_dt:0.0001
System init for write_data ...
  update every 1 steps, delay 100 steps, check yes
clear
next p
jump SELF loop2
next t
jump SELF loop1
print "Done!!!"
Done!!!
