LAMMPS (24 Dec 2020)
variable dt equal 0.0001
variable t index 900 1000 1500
label loop1
units metal
boundary m m m
atom_style atomic
lattice custom 6.711 a1 0.3671583967 0 0 a2 0.1835791983 0.3179684987 0 a3 0 0 1 basis 0.1 0.1 0.05 basis 0.433 0.433 0.55
Lattice spacing in x,y,z = 3.6960000 2.1338866 6.7110000
region 1 block 10.0 30.0 10.0 60.0 10.0 30.0 units lattice
region 2 cylinder y 20.0 20.0 2.5 27.0 43.0 units lattice
region 3 cylinder y 20.0 20.0 3.2 24.0 43.0 units lattice
region 4 cylinder y 20.0 20.0 2.5 20.0 27.0 units lattice
region 5 cylinder y 20.0 20.0 3.8 44.0 48.0 units lattice
region 6 cylinder y 20.0 20.0 2.5 20.0 43.0 units lattice
region 7 cylinder y 20.0 20.0 4.45 44.0 48.0 units lattice
region 8 cylinder y 20.0 20.2 3.2 20.0 23.0 units lattice
region 9 cylinder y 20.0 20.0 3.2 43.0 44.0 units lattice
region 10 cylinder y 20.0 20.0 3.8 43.0 44.0 units lattice
region 11 cylinder y 20.0 20.0 3.8 48.0 49.0 units lattice
region 12 cylinder y 20.0 20.2 3.8 19.0 20.0 units lattice
create_box 2 1
Created orthogonal box = (36.960000 21.338866 67.110000) to (110.88000 128.03320 201.33000)
create_atoms 1 region 3
Created 1016 atoms
lattice custom 6.711 a1 0.3671583967 0 0 a2 0.1835791983 0.3179684987 0 a3 0 0 1 basis 0.2667 0.2667 0.25 basis 0.6 0.6 0.75
Lattice spacing in x,y,z = 3.6960000 2.1338866 6.7110000
create_atoms 1 region 8
Created 161 atoms
delete_atoms region 6
Deleted 709 atoms, new total = 468
lattice custom 6.711 a1 0.3671583967 0 0 a2 0.1835791983 0.3179684987 0 a3 0 0 1 basis 0.1 0.1 0.05 basis 0.433 0.433 0.55
Lattice spacing in x,y,z = 3.6960000 2.1338866 6.7110000
create_atoms 1 region 7
Created 406 atoms
#create_atoms 1 region 10
delete_atoms region 5
Deleted 300 atoms, new total = 574
#delete_atoms region 9
mass 1 12.0107
lattice custom 5.4309 a1 1 0 0 a2 0 1 0 a3 0 0 1 basis 0.15 0.15 0.15 basis 0.65 0.65 0.15 basis 0.65 0.15 0.65 basis 0.15 0.65 0.65
Lattice spacing in x,y,z = 5.4309000 5.4309000 5.4309000
create_atoms 2 region 4
Created 95 atoms
create_atoms 2 region 9
Created 30 atoms
create_atoms 2 random 94 5628 5
Created 94 atoms
lattice custom 5.4309 a1 1 0 0 a2 0 1 0 a3 0 0 1 basis 0.65 0.35 0.35 basis 0.65 0.85 0.85 basis 0.15 0.85 0.35 basis 0.15 0.85 0.0.85
Lattice spacing in x,y,z = 5.4309000 5.4309000 5.4309000
create_atoms 2 region 2
Created 264 atoms
create_atoms 2 region 12
Created 64 atoms
create_atoms 2 region 11
Created 0 atoms
mass 2 28.0855
group 1 type 1
574 atoms in group 1
group 2 type 2
547 atoms in group 2
group 3 type 1
574 atoms in group 3
group 3 type 2
1121 atoms in group 3
pair_style kim Tersoff_LAMMPS_ErhartAlbe_2005SiII_SiC__MO_408791041969_003
pair_coeff * * C Si
neighbor 2.5 bin
neigh_modify every 1 delay 100
dump 1 all atom 100 dump.SiC_900_dt:0.0001
compute 1 1 pe/atom
compute 2 1 ke/atom
compute 3 2 pe/atom
compute 4 2 ke/atom
compute ape_C 1 reduce ave c_1
compute ake_C 1 reduce ave c_2
compute ape_Si 2 reduce ave c_3
compute ake_Si 2 reduce ave c_4
velocity 3 zero linear
velocity 3 zero angular
fix 1 3 nvt temp 0.001 10 0.001 fixedpoint 20.0 35.0 20.0
thermo_style custom step temp press c_ape_C c_ake_C c_ape_Si c_ake_Si
thermo 100
timestep 0.0001
run 1000
  update every 1 steps, delay 100 steps, check yes
Step Temp Press c_ape_C c_ake_C c_ape_Si c_ake_Si
0            0    2918.5957  0.081050269            0   0.68181837            0
Averages over the last 6 of 11 rows, steps 500 to 1000:
Temp Press c_ape_C c_ake_C c_ape_Si c_ake_Si
3.30642e-16 1250.41 -0.329368 1.92401e-20 -0.71793 6.73192e-20
Loop time of 0.605155 on 4 procs for 1000 steps with 1121 atoms

reset_timestep 0
unfix 1
velocity 3 zero linear
velocity 3 zero angular
velocity 3 create 300 125210
velocity 3 scale 300
fix 1 3 nvt temp 10 300 0.001 fixedpoint 20.0 35.0 20.0
thermo_style custom step temp press c_ape_C c_ake_C c_ape_Si c_ake_Si
thermo 100
timestep 0.0001
run 2000
Step Temp Press c_ape_C c_ake_C c_ape_Si c_ake_Si
0          300    1021.9886  -0.36196914  0.038760967  -0.88253897   0.03872507
Averages over the last 11 of 21 rows, steps 1000 to 2000:
Temp Press c_ape_C c_ake_C c_ape_Si c_ake_Si
229.737 -315.023 -1.18139 0.0437279 -2.38762 0.0149169
Loop time of 1.22658 on 4 procs for 2000 steps with 1121 atoms

reset_timestep 0
unfix 1
velocity 3 zero linear
velocity 3 zero angular
velocity 3 create $t 12025
velocity 3 create 900 12025
velocity 3 scale $t
velocity 3 scale 900
fix 1 3 nvt temp $t $t 0.001 fixedpoint 20.0 35.0 20.0
fix 1 3 nvt temp 900 $t 0.001 fixedpoint 20.0 35.0 20.0
fix 1 3 nvt temp 900 900 0.001 fixedpoint 20.0 35.0 20.0
thermo_style custom step temp press c_ape_C c_ake_C c_ape_Si c_ake_Si
thermo 100
timestep 0.0001
run 200000
Step Temp Press c_ape_C c_ake_C c_ape_Si c_ake_Si
0          900   -180.99492   -1.4244031   0.11958785   -2.4632504   0.11270713
Averages over the last 1001 of 2001 rows, steps 100000 to 200000:
Temp Press c_ape_C c_ake_C c_ape_Si c_ake_Si
900.301 0.212693 -4.95508 0.111871 -4.38897 0.120884
Loop time of 480.432 on 4 procs for 200000 steps with 1121 atoms

reset_timestep 0
unfix 1
velocity 3 zero linear
velocity 3 zero angular
fix 1 3 nvt temp $t 300 0.001 fixedpoint 20.0 35.0 20.0
fix 1 3 nvt temp 900 300 0.001 fixedpoint 20.0 35.0 20.0
thermo_style custom step temp press c_ape_C c_ake_C c_ape_Si c_ake_Si
thermo 100
timestep 0.0001
run 5000
Step Temp Press c_ape_C c_ake_C c_ape_Si c_ake_Si
0    872.55827    4.1923452   -5.0284386    0.1051277   -4.4149955   0.12061819
Averages over the last 26 of 51 rows, steps 2500 to 5000:
Temp Press c_ape_C c_ake_C c_ape_Si c_ake_Si
449.639 -2.1212 -5.08199 0.0547433 -4.48401 0.0615578
Loop time of 29.4406 on 4 procs for 5000 steps with 1121 atoms

write_data SiC.data1_900_dt:0.0001
System init for write_data ...
clear
next t
jump SELF loop1
units metal
boundary m m m
atom_style atomic
lattice custom 6.711 a1 0.3671583967 0 0 a2 0.1835791983 0.3179684987 0 a3 0 0 1 basis 0.1 0.1 0.05 basis 0.433 0.433 0.55
Lattice spacing in x,y,z = 3.6960000 2.1338866 6.7110000
region 1 block 10.0 30.0 10.0 60.0 10.0 30.0 units lattice
region 2 cylinder y 20.0 20.0 2.5 27.0 43.0 units lattice
region 3 cylinder y 20.0 20.0 3.2 24.0 43.0 units lattice
region 4 cylinder y 20.0 20.0 2.5 20.0 27.0 units lattice
region 5 cylinder y 20.0 20.0 3.8 44.0 48.0 units lattice
region 6 cylinder y 20.0 20.0 2.5 20.0 43.0 units lattice
region 7 cylinder y 20.0 20.0 4.45 44.0 48.0 units lattice
region 8 cylinder y 20.0 20.2 3.2 20.0 23.0 units lattice
region 9 cylinder y 20.0 20.0 3.2 43.0 44.0 units lattice
region 10 cylinder y 20.0 20.0 3.8 43.0 44.0 units lattice
region 11 cylinder y 20.0 20.0 3.8 48.0 49.0 units lattice
region 12 cylinder y 20.0 20.2 3.8 19.0 20.0 units lattice
create_box 2 1
Created orthogonal box = (36.960000 21.338866 67.110000) to (110.88000 128.03320 201.33000)
create_atoms 1 region 3
Created 1016 atoms
lattice custom 6.711 a1 0.3671583967 0 0 a2 0.1835791983 0.3179684987 0 a3 0 0 1 basis 0.2667 0.2667 0.25 basis 0.6 0.6 0.75
Lattice spacing in x,y,z = 3.6960000 2.1338866 6.7110000
create_atoms 1 region 8
Created 161 atoms
delete_atoms region 6
Deleted 709 atoms, new total = 468
lattice custom 6.711 a1 0.3671583967 0 0 a2 0.1835791983 0.3179684987 0 a3 0 0 1 basis 0.1 0.1 0.05 basis 0.433 0.433 0.55
Lattice spacing in x,y,z = 3.6960000 2.1338866 6.7110000
create_atoms 1 region 7
Created 406 atoms
#create_atoms 1 region 10
delete_atoms region 5
Deleted 300 atoms, new total = 574
#delete_atoms region 9
mass 1 12.0107
lattice custom 5.4309 a1 1 0 0 a2 0 1 0 a3 0 0 1 basis 0.15 0.15 0.15 basis 0.65 0.65 0.15 basis 0.65 0.15 0.65 basis 0.15 0.65 0.65
Lattice spacing in x,y,z = 5.4309000 5.4309000 5.4309000
create_atoms 2 region 4
Created 95 atoms
create_atoms 2 region 9
Created 30 atoms
create_atoms 2 random 94 5628 5
Created 94 atoms
lattice custom 5.4309 a1 1 0 0 a2 0 1 0 a3 0 0 1 basis 0.65 0.35 0.35 basis 0.65 0.85 0.85 basis 0.15 0.85 0.35 basis 0.15 0.85 0.0.85
Lattice spacing in x,y,z = 5.4309000 5.4309000 5.4309000
create_atoms 2 region 2
Created 264 atoms
create_atoms 2 region 12
Created 64 atoms
create_atoms 2 region 11
Created 0 atoms
mass 2 28.0855
group 1 type 1
574 atoms in group 1
group 2 type 2
547 atoms in group 2
group 3 type 1
574 atoms in group 3
group 3 type 2
1121 atoms in group 3
pair_style kim Tersoff_LAMMPS_ErhartAlbe_2005SiII_SiC__MO_408791041969_003
pair_coeff * * C Si
neighbor 2.5 bin
neigh_modify every 1 delay 100
dump 1 all atom 100 dump.SiC_1000_dt:0.0001
compute 1 1 pe/atom
compute 2 1 ke/atom
compute 3 2 pe/atom
compute 4 2 ke/atom
compute ape_C 1 reduce ave c_1
compute ake_C 1 reduce ave c_2
compute ape_Si 2 reduce ave c_3
compute ake_Si 2 reduce ave c_4
velocity 3 zero linear
velocity 3 zero angular
fix 1 3 nvt temp 0.001 10 0.001 fixedpoint 20.0 35.0 20.0
thermo_style custom step temp press c_ape_C c_ake_C c_ape_Si c_ake_Si
thermo 100
timestep 0.0001
run 1000
  update every 1 steps, delay 100 steps, check yes
Step Temp Press c_ape_C c_ake_C c_ape_Si c_ake_Si
0            0    2918.5957  0.081050269            0   0.68181837            0
Averages over the last 6 of 11 rows, steps 500 to 1000:
Temp Press c_ape_C c_ake_C c_ape_Si c_ake_Si
3.30642e-16 1250.41 -0.329368 1.92401e-20 -0.71793 6.73192e-20
Loop time of 0.661459 on 4 procs for 1000 steps with 1121 atoms

reset_timestep 0
unfix 1
velocity 3 zero linear
velocity 3 zero angular
velocity 3 create 300 125210
velocity 3 scale 300
fix 1 3 nvt temp 10 300 0.001 fixedpoint 20.0 35.0 20.0
thermo_style custom step temp press c_ape_C c_ake_C c_ape_Si c_ake_Si
thermo 100
timestep 0.0001
run 2000
Step Temp Press c_ape_C c_ake_C c_ape_Si c_ake_Si
0          300    1021.9886  -0.36196914  0.038760967  -0.88253897   0.03872507
Averages over the last 11 of 21 rows, steps 1000 to 2000:
Temp Press c_ape_C c_ake_C c_ape_Si c_ake_Si
229.737 -315.023 -1.18139 0.0437279 -2.38762 0.0149169
Loop time of 1.35206 on 4 procs for 2000 steps with 1121 atoms

reset_timestep 0
unfix 1
velocity 3 zero linear
velocity 3 zero angular
velocity 3 create $t 12025
velocity 3 create 1000 12025
velocity 3 scale $t
velocity 3 scale 1000
fix 1 3 nvt temp $t $t 0.001 fixedpoint 20.0 35.0 20.0
fix 1 3 nvt temp 1000 $t 0.001 fixedpoint 20.0 35.0 20.0
fix 1 3 nvt temp 1000 1000 0.001 fixedpoint 20.0 35.0 20.0
thermo_style custom step temp press c_ape_C c_ake_C c_ape_Si c_ake_Si
thermo 100
timestep 0.0001
run 200000
Step Temp Press c_ape_C c_ake_C c_ape_Si c_ake_Si
0         1000   -166.38724   -1.4244031   0.13287539   -2.4632504   0.12523015
Averages over the last 1001 of 2001 rows, steps 100000 to 200000:
Temp Press c_ape_C c_ake_C c_ape_Si c_ake_Si
999.923 0.444477 -5.06629 0.124774 -4.36371 0.133711
Loop time of 467.01 on 4 procs for 200000 steps with 1121 atoms

reset_timestep 0
unfix 1
velocity 3 zero linear
velocity 3 zero angular
fix 1 3 nvt temp $t 300 0.001 fixedpoint 20.0 35.0 20.0
fix 1 3 nvt temp 1000 300 0.001 fixedpoint 20.0 35.0 20.0
thermo_style custom step temp press c_ape_C c_ake_C c_ape_Si c_ake_Si
thermo 100
timestep 0.0001
run 5000
Step Temp Press c_ape_C c_ake_C c_ape_Si c_ake_Si
0    967.07531  -0.24929673   -5.1320726    0.1162684   -4.3874568   0.13394287
Averages over the last 26 of 51 rows, steps 2500 to 5000:
Temp Press c_ape_C c_ake_C c_ape_Si c_ake_Si
477.569 -1.24129 -5.21111 0.0583143 -4.47404 0.0652027
Loop time of 18.2053 on 4 procs for 5000 steps with 1121 atoms

write_data SiC.data1_1000_dt:0.0001
System init for write_data ...
clear
next t
jump SELF loop1
units metal
boundary m m m
atom_style atomic
lattice custom 6.711 a1 0.3671583967 0 0 a2 0.1835791983 0.3179684987 0 a3 0 0 1 basis 0.1 0.1 0.05 basis 0.433 0.433 0.55
Lattice spacing in x,y,z = 3.6960000 2.1338866 6.7110000
region 1 block 10.0 30.0 10.0 60.0 10.0 30.0 units lattice
region 2 cylinder y 20.0 20.0 2.5 27.0 43.0 units lattice
region 3 cylinder y 20.0 20.0 3.2 24.0 43.0 units lattice
region 4 cylinder y 20.0 20.0 2.5 20.0 27.0 units lattice
region 5 cylinder y 20.0 20.0 3.8 44.0 48.0 units lattice
region 6 cylinder y 20.0 20.0 2.5 20.0 43.0 units lattice
region 7 cylinder y 20.0 20.0 4.45 44.0 48.0 units lattice
region 8 cylinder y 20.0 20.2 3.2 20.0 23.0 units lattice
region 9 cylinder y 20.0 20.0 3.2 43.0 44.0 units lattice
region 10 cylinder y 20.0 20.0 3.8 43.0 44.0 units lattice
region 11 cylinder y 20.0 20.0 3.8 48.0 49.0 units lattice
region 12 cylinder y 20.0 20.2 3.8 19.0 20.0 units lattice
create_box 2 1
Created orthogonal box = (36.960000 21.338866 67.110000) to (110.88000 128.03320 201.33000)
create_atoms 1 region 3
Created 1016 atoms
lattice custom 6.711 a1 0.3671583967 0 0 a2 0.1835791983 0.3179684987 0 a3 0 0 1 basis 0.2667 0.2667 0.25 basis 0.6 0.6 0.75
Lattice spacing in x,y,z = 3.6960000 2.1338866 6.7110000
create_atoms 1 region 8
Created 161 atoms
delete_atoms region 6
Deleted 709 atoms, new total = 468
lattice custom 6.711 a1 0.3671583967 0 0 a2 0.1835791983 0.3179684987 0 a3 0 0 1 basis 0.1 0.1 0.05 basis 0.433 0.433 0.55
Lattice spacing in x,y,z = 3.6960000 2.1338866 6.7110000
create_atoms 1 region 7
Created 406 atoms
#create_atoms 1 region 10
delete_atoms region 5
Deleted 300 atoms, new total = 574
#delete_atoms region 9
mass 1 12.0107
lattice custom 5.4309 a1 1 0 0 a2 0 1 0 a3 0 0 1 basis 0.15 0.15 0.15 basis 0.65 0.65 0.15 basis 0.65 0.15 0.65 basis 0.15 0.65 0.65
Lattice spacing in x,y,z = 5.4309000 5.4309000 5.4309000
create_atoms 2 region 4
Created 95 atoms
create_atoms 2 region 9
Created 30 atoms
create_atoms 2 random 94 5628 5
Created 94 atoms
lattice custom 5.4309 a1 1 0 0 a2 0 1 0 a3 0 0 1 basis 0.65 0.35 0.35 basis 0.65 0.85 0.85 basis 0.15 0.85 0.35 basis 0.15 0.85 0.0.85
Lattice spacing in x,y,z = 5.4309000 5.4309000 5.4309000
create_atoms 2 region 2
Created 264 atoms
create_atoms 2 region 12
Created 64 atoms
create_atoms 2 region 11
Created 0 atoms
mass 2 28.0855
group 1 type 1
574 atoms in group 1
group 2 type 2
547 atoms in group 2
group 3 type 1
574 atoms in group 3
group 3 type 2
1121 atoms in group 3
pair_style kim Tersoff_LAMMPS_ErhartAlbe_2005SiII_SiC__MO_408791041969_003
pair_coeff * * C Si
neighbor 2.5 bin
neigh_modify every 1 delay 100
dump 1 all atom 100 dump.SiC_1500_dt:0.0001
compute 1 1 pe/atom
compute 2 1 ke/atom
compute 3 2 pe/atom
compute 4 2 ke/atom
compute ape_C 1 reduce ave c_1
compute ake_C 1 reduce ave c_2
compute ape_Si 2 reduce ave c_3
compute ake_Si 2 reduce ave c_4
velocity 3 zero linear
velocity 3 zero angular
fix 1 3 nvt temp 0.001 10 0.001 fixedpoint 20.0 35.0 20.0
thermo_style custom step temp press c_ape_C c_ake_C c_ape_Si c_ake_Si
thermo 100
timestep 0.0001
run 1000
  update every 1 steps, delay 100 steps, check yes
Step Temp Press c_ape_C c_ake_C c_ape_Si c_ake_Si
0            0    2918.5957  0.081050269            0   0.68181837            0
Averages over the last 6 of 11 rows, steps 500 to 1000:
Temp Press c_ape_C c_ake_C c_ape_Si c_ake_Si
3.30642e-16 1250.41 -0.329368 1.92401e-20 -0.71793 6.73192e-20
Loop time of 0.62203 on 4 procs for 1000 steps with 1121 atoms

reset_timestep 0
unfix 1
velocity 3 zero linear
velocity 3 zero angular
velocity 3 create 300 125210
velocity 3 scale 300
fix 1 3 nvt temp 10 300 0.001 fixedpoint 20.0 35.0 20.0
thermo_style custom step temp press c_ape_C c_ake_C c_ape_Si c_ake_Si
thermo 100
timestep 0.0001
run 2000
Step Temp Press c_ape_C c_ake_C c_ape_Si c_ake_Si
0          300    1021.9886  -0.36196914  0.038760967  -0.88253897   0.03872507
Averages over the last 11 of 21 rows, steps 1000 to 2000:
Temp Press c_ape_C c_ake_C c_ape_Si c_ake_Si
229.737 -315.023 -1.18139 0.0437279 -2.38762 0.0149169
Loop time of 1.25506 on 4 procs for 2000 steps with 1121 atoms

reset_timestep 0
unfix 1
velocity 3 zero linear
velocity 3 zero angular
velocity 3 create $t 12025
velocity 3 create 1500 12025
velocity 3 scale $t
velocity 3 scale 1500
fix 1 3 nvt temp $t $t 0.001 fixedpoint 20.0 35.0 20.0
fix 1 3 nvt temp 1500 $t 0.001 fixedpoint 20.0 35.0 20.0
fix 1 3 nvt temp 1500 1500 0.001 fixedpoint 20.0 35.0 20.0
thermo_style custom step temp press c_ape_C c_ake_C c_ape_Si c_ake_Si
thermo 100
timestep 0.0001
run 200000
Step Temp Press c_ape_C c_ake_C c_ape_Si c_ake_Si
0         1500   -93.348841   -1.4244031   0.19931308   -2.4632504   0.18784522
Averages over the last 1001 of 2001 rows, steps 100000 to 200000:
Temp Press c_ape_C c_ake_C c_ape_Si c_ake_Si
1500.64 -0.0227761 -5.20689 0.18524 -4.37463 0.202783
Loop time of 570.973 on 4 procs for 200000 steps with 1121 atoms

reset_timestep 0
unfix 1
velocity 3 zero linear
velocity 3 zero angular
fix 1 3 nvt temp $t 300 0.001 fixedpoint 20.0 35.0 20.0
fix 1 3 nvt temp 1500 300 0.001 fixedpoint 20.0 35.0 20.0
thermo_style custom step temp press c_ape_C c_ake_C c_ape_Si c_ake_Si
thermo 100
timestep 0.0001
run 5000
Step Temp Press c_ape_C c_ake_C c_ape_Si c_ake_Si
0    1538.5521   -1.4863949   -5.2562201   0.18675489   -4.3983522   0.21122664
Averages over the last 26 of 51 rows, steps 2500 to 5000:
Temp Press c_ape_C c_ake_C c_ape_Si c_ake_Si
599.419 -0.456952 -5.37445 0.0733163 -4.54067 0.0817097
Loop time of 22.6667 on 4 procs for 5000 steps with 1121 atoms

write_data SiC.data1_1500_dt:0.0001
System init for write_data ...
clear
next t
jump SELF loop1
print "Done!!!"
Done!!!
